* NGSPICE file created from user_analog_project_wrapper.ext - technology: sky130A

.subckt sky130_fd_pr__res_xhigh_po_5p73_JY438B a_n573_50# a_n573_n482# w_n802_n711#
+ VSUBS
X0 a_n573_50# a_n573_n482# VSUBS sky130_fd_pr__res_xhigh_po w=5.73 l=0.5
.ends

.subckt sky130_fd_bs_flash__special_sonosfet_star w_n436_n442# a_n33_36# dw_n436_n442#
+ a_22_n76# a_n84_n76#
X0 a_22_n76# a_n33_36# a_n84_n76# w_n436_n442# sky130_fd_bs_flash__special_sonosfet_star ad=0.14 pd=1.52 as=0.14 ps=1.52 w=0.45 l=0.22
.ends

.subckt sonos_1t_iso G D VNB S B
Xsky130_fd_bs_flash__special_sonosfet_star_0 B G VNB D S sky130_fd_bs_flash__special_sonosfet_star
.ends

.subckt sonos_cell w_n144_n252# a_n144_n130# dw_n144_n252# a_n90_n244# a_n90_102#
+ li_n144_n60# a_n144_42#
X0 a_n90_102# a_n144_42# a_n90_n42# w_n144_n252# sky130_fd_pr__special_nfet_latch ad=0.45 pd=2.8 as=0.189 ps=1.32 w=0.9 l=0.3
X1 a_n90_n42# a_n144_n130# a_n90_n244# w_n144_n252# sky130_fd_bs_flash__special_sonosfet_star ad=0.189 pd=1.32 as=0.513 ps=2.94 w=0.9 l=0.44
.ends

.subckt sonos_cell_mirrored sonos_cell_0/a_n144_n130# sonos_cell_0/a_n144_42# w_160_160#
+ sonos_cell_1/a_n144_42# sonos_cell_0/li_n144_n60# sonos_cell_1/a_n90_102# sonos_cell_1/dw_n144_n252#
+ sonos_cell_1/a_n144_n130# sonos_cell_1/a_n90_n244# sonos_cell_1/li_n144_n60#
Xsonos_cell_0 w_160_160# sonos_cell_0/a_n144_n130# sonos_cell_1/dw_n144_n252# sonos_cell_1/a_n90_n244#
+ sonos_cell_1/a_n90_102# sonos_cell_0/li_n144_n60# sonos_cell_0/a_n144_42# sonos_cell
Xsonos_cell_1 w_160_160# sonos_cell_1/a_n144_n130# sonos_cell_1/dw_n144_n252# sonos_cell_1/a_n90_n244#
+ sonos_cell_1/a_n90_102# sonos_cell_1/li_n144_n60# sonos_cell_1/a_n144_42# sonos_cell
.ends

.subckt sonos_8x8 w_n80_n96# dw_n80_n96#
Xsonos_cell_mirrored_0[0|0] w_n80_n96# w_n80_n96# w_n80_n96# w_n80_n96# w_n80_n96#
+ w_n80_n96# dw_n80_n96# w_n80_n96# w_n80_n96# w_n80_n96# sonos_cell_mirrored
Xsonos_cell_mirrored_0[1|0] w_n80_n96# w_n80_n96# w_n80_n96# w_n80_n96# w_n80_n96#
+ w_n80_n96# dw_n80_n96# w_n80_n96# w_n80_n96# w_n80_n96# sonos_cell_mirrored
Xsonos_cell_mirrored_0[2|0] w_n80_n96# w_n80_n96# w_n80_n96# w_n80_n96# w_n80_n96#
+ w_n80_n96# dw_n80_n96# w_n80_n96# w_n80_n96# w_n80_n96# sonos_cell_mirrored
Xsonos_cell_mirrored_0[3|0] w_n80_n96# w_n80_n96# w_n80_n96# w_n80_n96# w_n80_n96#
+ w_n80_n96# dw_n80_n96# w_n80_n96# w_n80_n96# w_n80_n96# sonos_cell_mirrored
Xsonos_cell_mirrored_0[0|1] w_n80_n96# w_n80_n96# w_n80_n96# w_n80_n96# w_n80_n96#
+ w_n80_n96# dw_n80_n96# w_n80_n96# w_n80_n96# w_n80_n96# sonos_cell_mirrored
Xsonos_cell_mirrored_0[1|1] w_n80_n96# w_n80_n96# w_n80_n96# w_n80_n96# w_n80_n96#
+ w_n80_n96# dw_n80_n96# w_n80_n96# w_n80_n96# w_n80_n96# sonos_cell_mirrored
Xsonos_cell_mirrored_0[2|1] w_n80_n96# w_n80_n96# w_n80_n96# w_n80_n96# w_n80_n96#
+ w_n80_n96# dw_n80_n96# w_n80_n96# w_n80_n96# w_n80_n96# sonos_cell_mirrored
Xsonos_cell_mirrored_0[3|1] w_n80_n96# w_n80_n96# w_n80_n96# w_n80_n96# w_n80_n96#
+ w_n80_n96# dw_n80_n96# w_n80_n96# w_n80_n96# w_n80_n96# sonos_cell_mirrored
Xsonos_cell_mirrored_0[0|2] w_n80_n96# w_n80_n96# w_n80_n96# w_n80_n96# w_n80_n96#
+ w_n80_n96# dw_n80_n96# w_n80_n96# w_n80_n96# w_n80_n96# sonos_cell_mirrored
Xsonos_cell_mirrored_0[1|2] w_n80_n96# w_n80_n96# w_n80_n96# w_n80_n96# w_n80_n96#
+ w_n80_n96# dw_n80_n96# w_n80_n96# w_n80_n96# w_n80_n96# sonos_cell_mirrored
Xsonos_cell_mirrored_0[2|2] w_n80_n96# w_n80_n96# w_n80_n96# w_n80_n96# w_n80_n96#
+ w_n80_n96# dw_n80_n96# w_n80_n96# w_n80_n96# w_n80_n96# sonos_cell_mirrored
Xsonos_cell_mirrored_0[3|2] w_n80_n96# w_n80_n96# w_n80_n96# w_n80_n96# w_n80_n96#
+ w_n80_n96# dw_n80_n96# w_n80_n96# w_n80_n96# w_n80_n96# sonos_cell_mirrored
Xsonos_cell_mirrored_0[0|3] w_n80_n96# w_n80_n96# w_n80_n96# w_n80_n96# w_n80_n96#
+ w_n80_n96# dw_n80_n96# w_n80_n96# w_n80_n96# w_n80_n96# sonos_cell_mirrored
Xsonos_cell_mirrored_0[1|3] w_n80_n96# w_n80_n96# w_n80_n96# w_n80_n96# w_n80_n96#
+ w_n80_n96# dw_n80_n96# w_n80_n96# w_n80_n96# w_n80_n96# sonos_cell_mirrored
Xsonos_cell_mirrored_0[2|3] w_n80_n96# w_n80_n96# w_n80_n96# w_n80_n96# w_n80_n96#
+ w_n80_n96# dw_n80_n96# w_n80_n96# w_n80_n96# w_n80_n96# sonos_cell_mirrored
Xsonos_cell_mirrored_0[3|3] w_n80_n96# w_n80_n96# w_n80_n96# w_n80_n96# w_n80_n96#
+ w_n80_n96# dw_n80_n96# w_n80_n96# w_n80_n96# w_n80_n96# sonos_cell_mirrored
Xsonos_cell_mirrored_0[0|4] w_n80_n96# w_n80_n96# w_n80_n96# w_n80_n96# w_n80_n96#
+ w_n80_n96# dw_n80_n96# w_n80_n96# w_n80_n96# w_n80_n96# sonos_cell_mirrored
Xsonos_cell_mirrored_0[1|4] w_n80_n96# w_n80_n96# w_n80_n96# w_n80_n96# w_n80_n96#
+ w_n80_n96# dw_n80_n96# w_n80_n96# w_n80_n96# w_n80_n96# sonos_cell_mirrored
Xsonos_cell_mirrored_0[2|4] w_n80_n96# w_n80_n96# w_n80_n96# w_n80_n96# w_n80_n96#
+ w_n80_n96# dw_n80_n96# w_n80_n96# w_n80_n96# w_n80_n96# sonos_cell_mirrored
Xsonos_cell_mirrored_0[3|4] w_n80_n96# w_n80_n96# w_n80_n96# w_n80_n96# w_n80_n96#
+ w_n80_n96# dw_n80_n96# w_n80_n96# w_n80_n96# w_n80_n96# sonos_cell_mirrored
Xsonos_cell_mirrored_0[0|5] w_n80_n96# w_n80_n96# w_n80_n96# w_n80_n96# w_n80_n96#
+ w_n80_n96# dw_n80_n96# w_n80_n96# w_n80_n96# w_n80_n96# sonos_cell_mirrored
Xsonos_cell_mirrored_0[1|5] w_n80_n96# w_n80_n96# w_n80_n96# w_n80_n96# w_n80_n96#
+ w_n80_n96# dw_n80_n96# w_n80_n96# w_n80_n96# w_n80_n96# sonos_cell_mirrored
Xsonos_cell_mirrored_0[2|5] w_n80_n96# w_n80_n96# w_n80_n96# w_n80_n96# w_n80_n96#
+ w_n80_n96# dw_n80_n96# w_n80_n96# w_n80_n96# w_n80_n96# sonos_cell_mirrored
Xsonos_cell_mirrored_0[3|5] w_n80_n96# w_n80_n96# w_n80_n96# w_n80_n96# w_n80_n96#
+ w_n80_n96# dw_n80_n96# w_n80_n96# w_n80_n96# w_n80_n96# sonos_cell_mirrored
Xsonos_cell_mirrored_0[0|6] w_n80_n96# w_n80_n96# w_n80_n96# w_n80_n96# w_n80_n96#
+ w_n80_n96# dw_n80_n96# w_n80_n96# w_n80_n96# w_n80_n96# sonos_cell_mirrored
Xsonos_cell_mirrored_0[1|6] w_n80_n96# w_n80_n96# w_n80_n96# w_n80_n96# w_n80_n96#
+ w_n80_n96# dw_n80_n96# w_n80_n96# w_n80_n96# w_n80_n96# sonos_cell_mirrored
Xsonos_cell_mirrored_0[2|6] w_n80_n96# w_n80_n96# w_n80_n96# w_n80_n96# w_n80_n96#
+ w_n80_n96# dw_n80_n96# w_n80_n96# w_n80_n96# w_n80_n96# sonos_cell_mirrored
Xsonos_cell_mirrored_0[3|6] w_n80_n96# w_n80_n96# w_n80_n96# w_n80_n96# w_n80_n96#
+ w_n80_n96# dw_n80_n96# w_n80_n96# w_n80_n96# w_n80_n96# sonos_cell_mirrored
Xsonos_cell_mirrored_0[0|7] w_n80_n96# w_n80_n96# w_n80_n96# w_n80_n96# w_n80_n96#
+ w_n80_n96# dw_n80_n96# w_n80_n96# w_n80_n96# w_n80_n96# sonos_cell_mirrored
Xsonos_cell_mirrored_0[1|7] w_n80_n96# w_n80_n96# w_n80_n96# w_n80_n96# w_n80_n96#
+ w_n80_n96# dw_n80_n96# w_n80_n96# w_n80_n96# w_n80_n96# sonos_cell_mirrored
Xsonos_cell_mirrored_0[2|7] w_n80_n96# w_n80_n96# w_n80_n96# w_n80_n96# w_n80_n96#
+ w_n80_n96# dw_n80_n96# w_n80_n96# w_n80_n96# w_n80_n96# sonos_cell_mirrored
Xsonos_cell_mirrored_0[3|7] w_n80_n96# w_n80_n96# w_n80_n96# w_n80_n96# w_n80_n96#
+ w_n80_n96# dw_n80_n96# w_n80_n96# w_n80_n96# w_n80_n96# sonos_cell_mirrored
.ends

.subckt sonos_array_50x50x64 w_n80_n96# sonos_8x8_0[9|9]/dw_n80_n96#
Xsonos_8x8_0[0|0] w_n80_n96# sonos_8x8_0[9|9]/dw_n80_n96# sonos_8x8
Xsonos_8x8_0[1|0] w_n80_n96# sonos_8x8_0[9|9]/dw_n80_n96# sonos_8x8
Xsonos_8x8_0[2|0] w_n80_n96# sonos_8x8_0[9|9]/dw_n80_n96# sonos_8x8
Xsonos_8x8_0[3|0] w_n80_n96# sonos_8x8_0[9|9]/dw_n80_n96# sonos_8x8
Xsonos_8x8_0[4|0] w_n80_n96# sonos_8x8_0[9|9]/dw_n80_n96# sonos_8x8
Xsonos_8x8_0[5|0] w_n80_n96# sonos_8x8_0[9|9]/dw_n80_n96# sonos_8x8
Xsonos_8x8_0[6|0] w_n80_n96# sonos_8x8_0[9|9]/dw_n80_n96# sonos_8x8
Xsonos_8x8_0[7|0] w_n80_n96# sonos_8x8_0[9|9]/dw_n80_n96# sonos_8x8
Xsonos_8x8_0[8|0] w_n80_n96# sonos_8x8_0[9|9]/dw_n80_n96# sonos_8x8
Xsonos_8x8_0[9|0] w_n80_n96# sonos_8x8_0[9|9]/dw_n80_n96# sonos_8x8
Xsonos_8x8_0[10|0] w_n80_n96# sonos_8x8_0[9|9]/dw_n80_n96# sonos_8x8
Xsonos_8x8_0[11|0] w_n80_n96# sonos_8x8_0[9|9]/dw_n80_n96# sonos_8x8
Xsonos_8x8_0[12|0] w_n80_n96# sonos_8x8_0[9|9]/dw_n80_n96# sonos_8x8
Xsonos_8x8_0[13|0] w_n80_n96# sonos_8x8_0[9|9]/dw_n80_n96# sonos_8x8
Xsonos_8x8_0[14|0] w_n80_n96# sonos_8x8_0[9|9]/dw_n80_n96# sonos_8x8
Xsonos_8x8_0[15|0] w_n80_n96# sonos_8x8_0[9|9]/dw_n80_n96# sonos_8x8
Xsonos_8x8_0[16|0] w_n80_n96# sonos_8x8_0[9|9]/dw_n80_n96# sonos_8x8
Xsonos_8x8_0[17|0] w_n80_n96# sonos_8x8_0[9|9]/dw_n80_n96# sonos_8x8
Xsonos_8x8_0[18|0] w_n80_n96# sonos_8x8_0[9|9]/dw_n80_n96# sonos_8x8
Xsonos_8x8_0[19|0] w_n80_n96# sonos_8x8_0[9|9]/dw_n80_n96# sonos_8x8
Xsonos_8x8_0[20|0] w_n80_n96# sonos_8x8_0[9|9]/dw_n80_n96# sonos_8x8
Xsonos_8x8_0[21|0] w_n80_n96# sonos_8x8_0[9|9]/dw_n80_n96# sonos_8x8
Xsonos_8x8_0[22|0] w_n80_n96# sonos_8x8_0[9|9]/dw_n80_n96# sonos_8x8
Xsonos_8x8_0[23|0] w_n80_n96# sonos_8x8_0[9|9]/dw_n80_n96# sonos_8x8
Xsonos_8x8_0[24|0] w_n80_n96# sonos_8x8_0[9|9]/dw_n80_n96# sonos_8x8
Xsonos_8x8_0[25|0] w_n80_n96# sonos_8x8_0[9|9]/dw_n80_n96# sonos_8x8
Xsonos_8x8_0[26|0] w_n80_n96# sonos_8x8_0[9|9]/dw_n80_n96# sonos_8x8
Xsonos_8x8_0[27|0] w_n80_n96# sonos_8x8_0[9|9]/dw_n80_n96# sonos_8x8
Xsonos_8x8_0[28|0] w_n80_n96# sonos_8x8_0[9|9]/dw_n80_n96# sonos_8x8
Xsonos_8x8_0[29|0] w_n80_n96# sonos_8x8_0[9|9]/dw_n80_n96# sonos_8x8
Xsonos_8x8_0[30|0] w_n80_n96# sonos_8x8_0[9|9]/dw_n80_n96# sonos_8x8
Xsonos_8x8_0[31|0] w_n80_n96# sonos_8x8_0[9|9]/dw_n80_n96# sonos_8x8
Xsonos_8x8_0[32|0] w_n80_n96# sonos_8x8_0[9|9]/dw_n80_n96# sonos_8x8
Xsonos_8x8_0[33|0] w_n80_n96# sonos_8x8_0[9|9]/dw_n80_n96# sonos_8x8
Xsonos_8x8_0[34|0] w_n80_n96# sonos_8x8_0[9|9]/dw_n80_n96# sonos_8x8
Xsonos_8x8_0[35|0] w_n80_n96# sonos_8x8_0[9|9]/dw_n80_n96# sonos_8x8
Xsonos_8x8_0[36|0] w_n80_n96# sonos_8x8_0[9|9]/dw_n80_n96# sonos_8x8
Xsonos_8x8_0[37|0] w_n80_n96# sonos_8x8_0[9|9]/dw_n80_n96# sonos_8x8
Xsonos_8x8_0[38|0] w_n80_n96# sonos_8x8_0[9|9]/dw_n80_n96# sonos_8x8
Xsonos_8x8_0[39|0] w_n80_n96# sonos_8x8_0[9|9]/dw_n80_n96# sonos_8x8
Xsonos_8x8_0[40|0] w_n80_n96# sonos_8x8_0[9|9]/dw_n80_n96# sonos_8x8
Xsonos_8x8_0[41|0] w_n80_n96# sonos_8x8_0[9|9]/dw_n80_n96# sonos_8x8
Xsonos_8x8_0[42|0] w_n80_n96# sonos_8x8_0[9|9]/dw_n80_n96# sonos_8x8
Xsonos_8x8_0[43|0] w_n80_n96# sonos_8x8_0[9|9]/dw_n80_n96# sonos_8x8
Xsonos_8x8_0[44|0] w_n80_n96# sonos_8x8_0[9|9]/dw_n80_n96# sonos_8x8
Xsonos_8x8_0[45|0] w_n80_n96# sonos_8x8_0[9|9]/dw_n80_n96# sonos_8x8
Xsonos_8x8_0[46|0] w_n80_n96# sonos_8x8_0[9|9]/dw_n80_n96# sonos_8x8
Xsonos_8x8_0[47|0] w_n80_n96# sonos_8x8_0[9|9]/dw_n80_n96# sonos_8x8
Xsonos_8x8_0[48|0] w_n80_n96# sonos_8x8_0[9|9]/dw_n80_n96# sonos_8x8
Xsonos_8x8_0[49|0] w_n80_n96# sonos_8x8_0[9|9]/dw_n80_n96# sonos_8x8
Xsonos_8x8_0[50|0] w_n80_n96# sonos_8x8_0[9|9]/dw_n80_n96# sonos_8x8
Xsonos_8x8_0[0|1] w_n80_n96# sonos_8x8_0[9|9]/dw_n80_n96# sonos_8x8
Xsonos_8x8_0[1|1] w_n80_n96# sonos_8x8_0[9|9]/dw_n80_n96# sonos_8x8
Xsonos_8x8_0[2|1] w_n80_n96# sonos_8x8_0[9|9]/dw_n80_n96# sonos_8x8
Xsonos_8x8_0[3|1] w_n80_n96# sonos_8x8_0[9|9]/dw_n80_n96# sonos_8x8
Xsonos_8x8_0[4|1] w_n80_n96# sonos_8x8_0[9|9]/dw_n80_n96# sonos_8x8
Xsonos_8x8_0[5|1] w_n80_n96# sonos_8x8_0[9|9]/dw_n80_n96# sonos_8x8
Xsonos_8x8_0[6|1] w_n80_n96# sonos_8x8_0[9|9]/dw_n80_n96# sonos_8x8
Xsonos_8x8_0[7|1] w_n80_n96# sonos_8x8_0[9|9]/dw_n80_n96# sonos_8x8
Xsonos_8x8_0[8|1] w_n80_n96# sonos_8x8_0[9|9]/dw_n80_n96# sonos_8x8
Xsonos_8x8_0[9|1] w_n80_n96# sonos_8x8_0[9|9]/dw_n80_n96# sonos_8x8
Xsonos_8x8_0[10|1] w_n80_n96# sonos_8x8_0[9|9]/dw_n80_n96# sonos_8x8
Xsonos_8x8_0[11|1] w_n80_n96# sonos_8x8_0[9|9]/dw_n80_n96# sonos_8x8
Xsonos_8x8_0[12|1] w_n80_n96# sonos_8x8_0[9|9]/dw_n80_n96# sonos_8x8
Xsonos_8x8_0[13|1] w_n80_n96# sonos_8x8_0[9|9]/dw_n80_n96# sonos_8x8
Xsonos_8x8_0[14|1] w_n80_n96# sonos_8x8_0[9|9]/dw_n80_n96# sonos_8x8
Xsonos_8x8_0[15|1] w_n80_n96# sonos_8x8_0[9|9]/dw_n80_n96# sonos_8x8
Xsonos_8x8_0[16|1] w_n80_n96# sonos_8x8_0[9|9]/dw_n80_n96# sonos_8x8
Xsonos_8x8_0[17|1] w_n80_n96# sonos_8x8_0[9|9]/dw_n80_n96# sonos_8x8
Xsonos_8x8_0[18|1] w_n80_n96# sonos_8x8_0[9|9]/dw_n80_n96# sonos_8x8
Xsonos_8x8_0[19|1] w_n80_n96# sonos_8x8_0[9|9]/dw_n80_n96# sonos_8x8
Xsonos_8x8_0[20|1] w_n80_n96# sonos_8x8_0[9|9]/dw_n80_n96# sonos_8x8
Xsonos_8x8_0[21|1] w_n80_n96# sonos_8x8_0[9|9]/dw_n80_n96# sonos_8x8
Xsonos_8x8_0[22|1] w_n80_n96# sonos_8x8_0[9|9]/dw_n80_n96# sonos_8x8
Xsonos_8x8_0[23|1] w_n80_n96# sonos_8x8_0[9|9]/dw_n80_n96# sonos_8x8
Xsonos_8x8_0[24|1] w_n80_n96# sonos_8x8_0[9|9]/dw_n80_n96# sonos_8x8
Xsonos_8x8_0[25|1] w_n80_n96# sonos_8x8_0[9|9]/dw_n80_n96# sonos_8x8
Xsonos_8x8_0[26|1] w_n80_n96# sonos_8x8_0[9|9]/dw_n80_n96# sonos_8x8
Xsonos_8x8_0[27|1] w_n80_n96# sonos_8x8_0[9|9]/dw_n80_n96# sonos_8x8
Xsonos_8x8_0[28|1] w_n80_n96# sonos_8x8_0[9|9]/dw_n80_n96# sonos_8x8
Xsonos_8x8_0[29|1] w_n80_n96# sonos_8x8_0[9|9]/dw_n80_n96# sonos_8x8
Xsonos_8x8_0[30|1] w_n80_n96# sonos_8x8_0[9|9]/dw_n80_n96# sonos_8x8
Xsonos_8x8_0[31|1] w_n80_n96# sonos_8x8_0[9|9]/dw_n80_n96# sonos_8x8
Xsonos_8x8_0[32|1] w_n80_n96# sonos_8x8_0[9|9]/dw_n80_n96# sonos_8x8
Xsonos_8x8_0[33|1] w_n80_n96# sonos_8x8_0[9|9]/dw_n80_n96# sonos_8x8
Xsonos_8x8_0[34|1] w_n80_n96# sonos_8x8_0[9|9]/dw_n80_n96# sonos_8x8
Xsonos_8x8_0[35|1] w_n80_n96# sonos_8x8_0[9|9]/dw_n80_n96# sonos_8x8
Xsonos_8x8_0[36|1] w_n80_n96# sonos_8x8_0[9|9]/dw_n80_n96# sonos_8x8
Xsonos_8x8_0[37|1] w_n80_n96# sonos_8x8_0[9|9]/dw_n80_n96# sonos_8x8
Xsonos_8x8_0[38|1] w_n80_n96# sonos_8x8_0[9|9]/dw_n80_n96# sonos_8x8
Xsonos_8x8_0[39|1] w_n80_n96# sonos_8x8_0[9|9]/dw_n80_n96# sonos_8x8
Xsonos_8x8_0[40|1] w_n80_n96# sonos_8x8_0[9|9]/dw_n80_n96# sonos_8x8
Xsonos_8x8_0[41|1] w_n80_n96# sonos_8x8_0[9|9]/dw_n80_n96# sonos_8x8
Xsonos_8x8_0[42|1] w_n80_n96# sonos_8x8_0[9|9]/dw_n80_n96# sonos_8x8
Xsonos_8x8_0[43|1] w_n80_n96# sonos_8x8_0[9|9]/dw_n80_n96# sonos_8x8
Xsonos_8x8_0[44|1] w_n80_n96# sonos_8x8_0[9|9]/dw_n80_n96# sonos_8x8
Xsonos_8x8_0[45|1] w_n80_n96# sonos_8x8_0[9|9]/dw_n80_n96# sonos_8x8
Xsonos_8x8_0[46|1] w_n80_n96# sonos_8x8_0[9|9]/dw_n80_n96# sonos_8x8
Xsonos_8x8_0[47|1] w_n80_n96# sonos_8x8_0[9|9]/dw_n80_n96# sonos_8x8
Xsonos_8x8_0[48|1] w_n80_n96# sonos_8x8_0[9|9]/dw_n80_n96# sonos_8x8
Xsonos_8x8_0[49|1] w_n80_n96# sonos_8x8_0[9|9]/dw_n80_n96# sonos_8x8
Xsonos_8x8_0[50|1] w_n80_n96# sonos_8x8_0[9|9]/dw_n80_n96# sonos_8x8
Xsonos_8x8_0[0|2] w_n80_n96# sonos_8x8_0[9|9]/dw_n80_n96# sonos_8x8
Xsonos_8x8_0[1|2] w_n80_n96# sonos_8x8_0[9|9]/dw_n80_n96# sonos_8x8
Xsonos_8x8_0[2|2] w_n80_n96# sonos_8x8_0[9|9]/dw_n80_n96# sonos_8x8
Xsonos_8x8_0[3|2] w_n80_n96# sonos_8x8_0[9|9]/dw_n80_n96# sonos_8x8
Xsonos_8x8_0[4|2] w_n80_n96# sonos_8x8_0[9|9]/dw_n80_n96# sonos_8x8
Xsonos_8x8_0[5|2] w_n80_n96# sonos_8x8_0[9|9]/dw_n80_n96# sonos_8x8
Xsonos_8x8_0[6|2] w_n80_n96# sonos_8x8_0[9|9]/dw_n80_n96# sonos_8x8
Xsonos_8x8_0[7|2] w_n80_n96# sonos_8x8_0[9|9]/dw_n80_n96# sonos_8x8
Xsonos_8x8_0[8|2] w_n80_n96# sonos_8x8_0[9|9]/dw_n80_n96# sonos_8x8
Xsonos_8x8_0[9|2] w_n80_n96# sonos_8x8_0[9|9]/dw_n80_n96# sonos_8x8
Xsonos_8x8_0[10|2] w_n80_n96# sonos_8x8_0[9|9]/dw_n80_n96# sonos_8x8
Xsonos_8x8_0[11|2] w_n80_n96# sonos_8x8_0[9|9]/dw_n80_n96# sonos_8x8
Xsonos_8x8_0[12|2] w_n80_n96# sonos_8x8_0[9|9]/dw_n80_n96# sonos_8x8
Xsonos_8x8_0[13|2] w_n80_n96# sonos_8x8_0[9|9]/dw_n80_n96# sonos_8x8
Xsonos_8x8_0[14|2] w_n80_n96# sonos_8x8_0[9|9]/dw_n80_n96# sonos_8x8
Xsonos_8x8_0[15|2] w_n80_n96# sonos_8x8_0[9|9]/dw_n80_n96# sonos_8x8
Xsonos_8x8_0[16|2] w_n80_n96# sonos_8x8_0[9|9]/dw_n80_n96# sonos_8x8
Xsonos_8x8_0[17|2] w_n80_n96# sonos_8x8_0[9|9]/dw_n80_n96# sonos_8x8
Xsonos_8x8_0[18|2] w_n80_n96# sonos_8x8_0[9|9]/dw_n80_n96# sonos_8x8
Xsonos_8x8_0[19|2] w_n80_n96# sonos_8x8_0[9|9]/dw_n80_n96# sonos_8x8
Xsonos_8x8_0[20|2] w_n80_n96# sonos_8x8_0[9|9]/dw_n80_n96# sonos_8x8
Xsonos_8x8_0[21|2] w_n80_n96# sonos_8x8_0[9|9]/dw_n80_n96# sonos_8x8
Xsonos_8x8_0[22|2] w_n80_n96# sonos_8x8_0[9|9]/dw_n80_n96# sonos_8x8
Xsonos_8x8_0[23|2] w_n80_n96# sonos_8x8_0[9|9]/dw_n80_n96# sonos_8x8
Xsonos_8x8_0[24|2] w_n80_n96# sonos_8x8_0[9|9]/dw_n80_n96# sonos_8x8
Xsonos_8x8_0[25|2] w_n80_n96# sonos_8x8_0[9|9]/dw_n80_n96# sonos_8x8
Xsonos_8x8_0[26|2] w_n80_n96# sonos_8x8_0[9|9]/dw_n80_n96# sonos_8x8
Xsonos_8x8_0[27|2] w_n80_n96# sonos_8x8_0[9|9]/dw_n80_n96# sonos_8x8
Xsonos_8x8_0[28|2] w_n80_n96# sonos_8x8_0[9|9]/dw_n80_n96# sonos_8x8
Xsonos_8x8_0[29|2] w_n80_n96# sonos_8x8_0[9|9]/dw_n80_n96# sonos_8x8
Xsonos_8x8_0[30|2] w_n80_n96# sonos_8x8_0[9|9]/dw_n80_n96# sonos_8x8
Xsonos_8x8_0[31|2] w_n80_n96# sonos_8x8_0[9|9]/dw_n80_n96# sonos_8x8
Xsonos_8x8_0[32|2] w_n80_n96# sonos_8x8_0[9|9]/dw_n80_n96# sonos_8x8
Xsonos_8x8_0[33|2] w_n80_n96# sonos_8x8_0[9|9]/dw_n80_n96# sonos_8x8
Xsonos_8x8_0[34|2] w_n80_n96# sonos_8x8_0[9|9]/dw_n80_n96# sonos_8x8
Xsonos_8x8_0[35|2] w_n80_n96# sonos_8x8_0[9|9]/dw_n80_n96# sonos_8x8
Xsonos_8x8_0[36|2] w_n80_n96# sonos_8x8_0[9|9]/dw_n80_n96# sonos_8x8
Xsonos_8x8_0[37|2] w_n80_n96# sonos_8x8_0[9|9]/dw_n80_n96# sonos_8x8
Xsonos_8x8_0[38|2] w_n80_n96# sonos_8x8_0[9|9]/dw_n80_n96# sonos_8x8
Xsonos_8x8_0[39|2] w_n80_n96# sonos_8x8_0[9|9]/dw_n80_n96# sonos_8x8
Xsonos_8x8_0[40|2] w_n80_n96# sonos_8x8_0[9|9]/dw_n80_n96# sonos_8x8
Xsonos_8x8_0[41|2] w_n80_n96# sonos_8x8_0[9|9]/dw_n80_n96# sonos_8x8
Xsonos_8x8_0[42|2] w_n80_n96# sonos_8x8_0[9|9]/dw_n80_n96# sonos_8x8
Xsonos_8x8_0[43|2] w_n80_n96# sonos_8x8_0[9|9]/dw_n80_n96# sonos_8x8
Xsonos_8x8_0[44|2] w_n80_n96# sonos_8x8_0[9|9]/dw_n80_n96# sonos_8x8
Xsonos_8x8_0[45|2] w_n80_n96# sonos_8x8_0[9|9]/dw_n80_n96# sonos_8x8
Xsonos_8x8_0[46|2] w_n80_n96# sonos_8x8_0[9|9]/dw_n80_n96# sonos_8x8
Xsonos_8x8_0[47|2] w_n80_n96# sonos_8x8_0[9|9]/dw_n80_n96# sonos_8x8
Xsonos_8x8_0[48|2] w_n80_n96# sonos_8x8_0[9|9]/dw_n80_n96# sonos_8x8
Xsonos_8x8_0[49|2] w_n80_n96# sonos_8x8_0[9|9]/dw_n80_n96# sonos_8x8
Xsonos_8x8_0[50|2] w_n80_n96# sonos_8x8_0[9|9]/dw_n80_n96# sonos_8x8
Xsonos_8x8_0[0|3] w_n80_n96# sonos_8x8_0[9|9]/dw_n80_n96# sonos_8x8
Xsonos_8x8_0[1|3] w_n80_n96# sonos_8x8_0[9|9]/dw_n80_n96# sonos_8x8
Xsonos_8x8_0[2|3] w_n80_n96# sonos_8x8_0[9|9]/dw_n80_n96# sonos_8x8
Xsonos_8x8_0[3|3] w_n80_n96# sonos_8x8_0[9|9]/dw_n80_n96# sonos_8x8
Xsonos_8x8_0[4|3] w_n80_n96# sonos_8x8_0[9|9]/dw_n80_n96# sonos_8x8
Xsonos_8x8_0[5|3] w_n80_n96# sonos_8x8_0[9|9]/dw_n80_n96# sonos_8x8
Xsonos_8x8_0[6|3] w_n80_n96# sonos_8x8_0[9|9]/dw_n80_n96# sonos_8x8
Xsonos_8x8_0[7|3] w_n80_n96# sonos_8x8_0[9|9]/dw_n80_n96# sonos_8x8
Xsonos_8x8_0[8|3] w_n80_n96# sonos_8x8_0[9|9]/dw_n80_n96# sonos_8x8
Xsonos_8x8_0[9|3] w_n80_n96# sonos_8x8_0[9|9]/dw_n80_n96# sonos_8x8
Xsonos_8x8_0[10|3] w_n80_n96# sonos_8x8_0[9|9]/dw_n80_n96# sonos_8x8
Xsonos_8x8_0[11|3] w_n80_n96# sonos_8x8_0[9|9]/dw_n80_n96# sonos_8x8
Xsonos_8x8_0[12|3] w_n80_n96# sonos_8x8_0[9|9]/dw_n80_n96# sonos_8x8
Xsonos_8x8_0[13|3] w_n80_n96# sonos_8x8_0[9|9]/dw_n80_n96# sonos_8x8
Xsonos_8x8_0[14|3] w_n80_n96# sonos_8x8_0[9|9]/dw_n80_n96# sonos_8x8
Xsonos_8x8_0[15|3] w_n80_n96# sonos_8x8_0[9|9]/dw_n80_n96# sonos_8x8
Xsonos_8x8_0[16|3] w_n80_n96# sonos_8x8_0[9|9]/dw_n80_n96# sonos_8x8
Xsonos_8x8_0[17|3] w_n80_n96# sonos_8x8_0[9|9]/dw_n80_n96# sonos_8x8
Xsonos_8x8_0[18|3] w_n80_n96# sonos_8x8_0[9|9]/dw_n80_n96# sonos_8x8
Xsonos_8x8_0[19|3] w_n80_n96# sonos_8x8_0[9|9]/dw_n80_n96# sonos_8x8
Xsonos_8x8_0[20|3] w_n80_n96# sonos_8x8_0[9|9]/dw_n80_n96# sonos_8x8
Xsonos_8x8_0[21|3] w_n80_n96# sonos_8x8_0[9|9]/dw_n80_n96# sonos_8x8
Xsonos_8x8_0[22|3] w_n80_n96# sonos_8x8_0[9|9]/dw_n80_n96# sonos_8x8
Xsonos_8x8_0[23|3] w_n80_n96# sonos_8x8_0[9|9]/dw_n80_n96# sonos_8x8
Xsonos_8x8_0[24|3] w_n80_n96# sonos_8x8_0[9|9]/dw_n80_n96# sonos_8x8
Xsonos_8x8_0[25|3] w_n80_n96# sonos_8x8_0[9|9]/dw_n80_n96# sonos_8x8
Xsonos_8x8_0[26|3] w_n80_n96# sonos_8x8_0[9|9]/dw_n80_n96# sonos_8x8
Xsonos_8x8_0[27|3] w_n80_n96# sonos_8x8_0[9|9]/dw_n80_n96# sonos_8x8
Xsonos_8x8_0[28|3] w_n80_n96# sonos_8x8_0[9|9]/dw_n80_n96# sonos_8x8
Xsonos_8x8_0[29|3] w_n80_n96# sonos_8x8_0[9|9]/dw_n80_n96# sonos_8x8
Xsonos_8x8_0[30|3] w_n80_n96# sonos_8x8_0[9|9]/dw_n80_n96# sonos_8x8
Xsonos_8x8_0[31|3] w_n80_n96# sonos_8x8_0[9|9]/dw_n80_n96# sonos_8x8
Xsonos_8x8_0[32|3] w_n80_n96# sonos_8x8_0[9|9]/dw_n80_n96# sonos_8x8
Xsonos_8x8_0[33|3] w_n80_n96# sonos_8x8_0[9|9]/dw_n80_n96# sonos_8x8
Xsonos_8x8_0[34|3] w_n80_n96# sonos_8x8_0[9|9]/dw_n80_n96# sonos_8x8
Xsonos_8x8_0[35|3] w_n80_n96# sonos_8x8_0[9|9]/dw_n80_n96# sonos_8x8
Xsonos_8x8_0[36|3] w_n80_n96# sonos_8x8_0[9|9]/dw_n80_n96# sonos_8x8
Xsonos_8x8_0[37|3] w_n80_n96# sonos_8x8_0[9|9]/dw_n80_n96# sonos_8x8
Xsonos_8x8_0[38|3] w_n80_n96# sonos_8x8_0[9|9]/dw_n80_n96# sonos_8x8
Xsonos_8x8_0[39|3] w_n80_n96# sonos_8x8_0[9|9]/dw_n80_n96# sonos_8x8
Xsonos_8x8_0[40|3] w_n80_n96# sonos_8x8_0[9|9]/dw_n80_n96# sonos_8x8
Xsonos_8x8_0[41|3] w_n80_n96# sonos_8x8_0[9|9]/dw_n80_n96# sonos_8x8
Xsonos_8x8_0[42|3] w_n80_n96# sonos_8x8_0[9|9]/dw_n80_n96# sonos_8x8
Xsonos_8x8_0[43|3] w_n80_n96# sonos_8x8_0[9|9]/dw_n80_n96# sonos_8x8
Xsonos_8x8_0[44|3] w_n80_n96# sonos_8x8_0[9|9]/dw_n80_n96# sonos_8x8
Xsonos_8x8_0[45|3] w_n80_n96# sonos_8x8_0[9|9]/dw_n80_n96# sonos_8x8
Xsonos_8x8_0[46|3] w_n80_n96# sonos_8x8_0[9|9]/dw_n80_n96# sonos_8x8
Xsonos_8x8_0[47|3] w_n80_n96# sonos_8x8_0[9|9]/dw_n80_n96# sonos_8x8
Xsonos_8x8_0[48|3] w_n80_n96# sonos_8x8_0[9|9]/dw_n80_n96# sonos_8x8
Xsonos_8x8_0[49|3] w_n80_n96# sonos_8x8_0[9|9]/dw_n80_n96# sonos_8x8
Xsonos_8x8_0[50|3] w_n80_n96# sonos_8x8_0[9|9]/dw_n80_n96# sonos_8x8
Xsonos_8x8_0[0|4] w_n80_n96# sonos_8x8_0[9|9]/dw_n80_n96# sonos_8x8
Xsonos_8x8_0[1|4] w_n80_n96# sonos_8x8_0[9|9]/dw_n80_n96# sonos_8x8
Xsonos_8x8_0[2|4] w_n80_n96# sonos_8x8_0[9|9]/dw_n80_n96# sonos_8x8
Xsonos_8x8_0[3|4] w_n80_n96# sonos_8x8_0[9|9]/dw_n80_n96# sonos_8x8
Xsonos_8x8_0[4|4] w_n80_n96# sonos_8x8_0[9|9]/dw_n80_n96# sonos_8x8
Xsonos_8x8_0[5|4] w_n80_n96# sonos_8x8_0[9|9]/dw_n80_n96# sonos_8x8
Xsonos_8x8_0[6|4] w_n80_n96# sonos_8x8_0[9|9]/dw_n80_n96# sonos_8x8
Xsonos_8x8_0[7|4] w_n80_n96# sonos_8x8_0[9|9]/dw_n80_n96# sonos_8x8
Xsonos_8x8_0[8|4] w_n80_n96# sonos_8x8_0[9|9]/dw_n80_n96# sonos_8x8
Xsonos_8x8_0[9|4] w_n80_n96# sonos_8x8_0[9|9]/dw_n80_n96# sonos_8x8
Xsonos_8x8_0[10|4] w_n80_n96# sonos_8x8_0[9|9]/dw_n80_n96# sonos_8x8
Xsonos_8x8_0[11|4] w_n80_n96# sonos_8x8_0[9|9]/dw_n80_n96# sonos_8x8
Xsonos_8x8_0[12|4] w_n80_n96# sonos_8x8_0[9|9]/dw_n80_n96# sonos_8x8
Xsonos_8x8_0[13|4] w_n80_n96# sonos_8x8_0[9|9]/dw_n80_n96# sonos_8x8
Xsonos_8x8_0[14|4] w_n80_n96# sonos_8x8_0[9|9]/dw_n80_n96# sonos_8x8
Xsonos_8x8_0[15|4] w_n80_n96# sonos_8x8_0[9|9]/dw_n80_n96# sonos_8x8
Xsonos_8x8_0[16|4] w_n80_n96# sonos_8x8_0[9|9]/dw_n80_n96# sonos_8x8
Xsonos_8x8_0[17|4] w_n80_n96# sonos_8x8_0[9|9]/dw_n80_n96# sonos_8x8
Xsonos_8x8_0[18|4] w_n80_n96# sonos_8x8_0[9|9]/dw_n80_n96# sonos_8x8
Xsonos_8x8_0[19|4] w_n80_n96# sonos_8x8_0[9|9]/dw_n80_n96# sonos_8x8
Xsonos_8x8_0[20|4] w_n80_n96# sonos_8x8_0[9|9]/dw_n80_n96# sonos_8x8
Xsonos_8x8_0[21|4] w_n80_n96# sonos_8x8_0[9|9]/dw_n80_n96# sonos_8x8
Xsonos_8x8_0[22|4] w_n80_n96# sonos_8x8_0[9|9]/dw_n80_n96# sonos_8x8
Xsonos_8x8_0[23|4] w_n80_n96# sonos_8x8_0[9|9]/dw_n80_n96# sonos_8x8
Xsonos_8x8_0[24|4] w_n80_n96# sonos_8x8_0[9|9]/dw_n80_n96# sonos_8x8
Xsonos_8x8_0[25|4] w_n80_n96# sonos_8x8_0[9|9]/dw_n80_n96# sonos_8x8
Xsonos_8x8_0[26|4] w_n80_n96# sonos_8x8_0[9|9]/dw_n80_n96# sonos_8x8
Xsonos_8x8_0[27|4] w_n80_n96# sonos_8x8_0[9|9]/dw_n80_n96# sonos_8x8
Xsonos_8x8_0[28|4] w_n80_n96# sonos_8x8_0[9|9]/dw_n80_n96# sonos_8x8
Xsonos_8x8_0[29|4] w_n80_n96# sonos_8x8_0[9|9]/dw_n80_n96# sonos_8x8
Xsonos_8x8_0[30|4] w_n80_n96# sonos_8x8_0[9|9]/dw_n80_n96# sonos_8x8
Xsonos_8x8_0[31|4] w_n80_n96# sonos_8x8_0[9|9]/dw_n80_n96# sonos_8x8
Xsonos_8x8_0[32|4] w_n80_n96# sonos_8x8_0[9|9]/dw_n80_n96# sonos_8x8
Xsonos_8x8_0[33|4] w_n80_n96# sonos_8x8_0[9|9]/dw_n80_n96# sonos_8x8
Xsonos_8x8_0[34|4] w_n80_n96# sonos_8x8_0[9|9]/dw_n80_n96# sonos_8x8
Xsonos_8x8_0[35|4] w_n80_n96# sonos_8x8_0[9|9]/dw_n80_n96# sonos_8x8
Xsonos_8x8_0[36|4] w_n80_n96# sonos_8x8_0[9|9]/dw_n80_n96# sonos_8x8
Xsonos_8x8_0[37|4] w_n80_n96# sonos_8x8_0[9|9]/dw_n80_n96# sonos_8x8
Xsonos_8x8_0[38|4] w_n80_n96# sonos_8x8_0[9|9]/dw_n80_n96# sonos_8x8
Xsonos_8x8_0[39|4] w_n80_n96# sonos_8x8_0[9|9]/dw_n80_n96# sonos_8x8
Xsonos_8x8_0[40|4] w_n80_n96# sonos_8x8_0[9|9]/dw_n80_n96# sonos_8x8
Xsonos_8x8_0[41|4] w_n80_n96# sonos_8x8_0[9|9]/dw_n80_n96# sonos_8x8
Xsonos_8x8_0[42|4] w_n80_n96# sonos_8x8_0[9|9]/dw_n80_n96# sonos_8x8
Xsonos_8x8_0[43|4] w_n80_n96# sonos_8x8_0[9|9]/dw_n80_n96# sonos_8x8
Xsonos_8x8_0[44|4] w_n80_n96# sonos_8x8_0[9|9]/dw_n80_n96# sonos_8x8
Xsonos_8x8_0[45|4] w_n80_n96# sonos_8x8_0[9|9]/dw_n80_n96# sonos_8x8
Xsonos_8x8_0[46|4] w_n80_n96# sonos_8x8_0[9|9]/dw_n80_n96# sonos_8x8
Xsonos_8x8_0[47|4] w_n80_n96# sonos_8x8_0[9|9]/dw_n80_n96# sonos_8x8
Xsonos_8x8_0[48|4] w_n80_n96# sonos_8x8_0[9|9]/dw_n80_n96# sonos_8x8
Xsonos_8x8_0[49|4] w_n80_n96# sonos_8x8_0[9|9]/dw_n80_n96# sonos_8x8
Xsonos_8x8_0[50|4] w_n80_n96# sonos_8x8_0[9|9]/dw_n80_n96# sonos_8x8
Xsonos_8x8_0[0|5] w_n80_n96# sonos_8x8_0[9|9]/dw_n80_n96# sonos_8x8
Xsonos_8x8_0[1|5] w_n80_n96# sonos_8x8_0[9|9]/dw_n80_n96# sonos_8x8
Xsonos_8x8_0[2|5] w_n80_n96# sonos_8x8_0[9|9]/dw_n80_n96# sonos_8x8
Xsonos_8x8_0[3|5] w_n80_n96# sonos_8x8_0[9|9]/dw_n80_n96# sonos_8x8
Xsonos_8x8_0[4|5] w_n80_n96# sonos_8x8_0[9|9]/dw_n80_n96# sonos_8x8
Xsonos_8x8_0[5|5] w_n80_n96# sonos_8x8_0[9|9]/dw_n80_n96# sonos_8x8
Xsonos_8x8_0[6|5] w_n80_n96# sonos_8x8_0[9|9]/dw_n80_n96# sonos_8x8
Xsonos_8x8_0[7|5] w_n80_n96# sonos_8x8_0[9|9]/dw_n80_n96# sonos_8x8
Xsonos_8x8_0[8|5] w_n80_n96# sonos_8x8_0[9|9]/dw_n80_n96# sonos_8x8
Xsonos_8x8_0[9|5] w_n80_n96# sonos_8x8_0[9|9]/dw_n80_n96# sonos_8x8
Xsonos_8x8_0[10|5] w_n80_n96# sonos_8x8_0[9|9]/dw_n80_n96# sonos_8x8
Xsonos_8x8_0[11|5] w_n80_n96# sonos_8x8_0[9|9]/dw_n80_n96# sonos_8x8
Xsonos_8x8_0[12|5] w_n80_n96# sonos_8x8_0[9|9]/dw_n80_n96# sonos_8x8
Xsonos_8x8_0[13|5] w_n80_n96# sonos_8x8_0[9|9]/dw_n80_n96# sonos_8x8
Xsonos_8x8_0[14|5] w_n80_n96# sonos_8x8_0[9|9]/dw_n80_n96# sonos_8x8
Xsonos_8x8_0[15|5] w_n80_n96# sonos_8x8_0[9|9]/dw_n80_n96# sonos_8x8
Xsonos_8x8_0[16|5] w_n80_n96# sonos_8x8_0[9|9]/dw_n80_n96# sonos_8x8
Xsonos_8x8_0[17|5] w_n80_n96# sonos_8x8_0[9|9]/dw_n80_n96# sonos_8x8
Xsonos_8x8_0[18|5] w_n80_n96# sonos_8x8_0[9|9]/dw_n80_n96# sonos_8x8
Xsonos_8x8_0[19|5] w_n80_n96# sonos_8x8_0[9|9]/dw_n80_n96# sonos_8x8
Xsonos_8x8_0[20|5] w_n80_n96# sonos_8x8_0[9|9]/dw_n80_n96# sonos_8x8
Xsonos_8x8_0[21|5] w_n80_n96# sonos_8x8_0[9|9]/dw_n80_n96# sonos_8x8
Xsonos_8x8_0[22|5] w_n80_n96# sonos_8x8_0[9|9]/dw_n80_n96# sonos_8x8
Xsonos_8x8_0[23|5] w_n80_n96# sonos_8x8_0[9|9]/dw_n80_n96# sonos_8x8
Xsonos_8x8_0[24|5] w_n80_n96# sonos_8x8_0[9|9]/dw_n80_n96# sonos_8x8
Xsonos_8x8_0[25|5] w_n80_n96# sonos_8x8_0[9|9]/dw_n80_n96# sonos_8x8
Xsonos_8x8_0[26|5] w_n80_n96# sonos_8x8_0[9|9]/dw_n80_n96# sonos_8x8
Xsonos_8x8_0[27|5] w_n80_n96# sonos_8x8_0[9|9]/dw_n80_n96# sonos_8x8
Xsonos_8x8_0[28|5] w_n80_n96# sonos_8x8_0[9|9]/dw_n80_n96# sonos_8x8
Xsonos_8x8_0[29|5] w_n80_n96# sonos_8x8_0[9|9]/dw_n80_n96# sonos_8x8
Xsonos_8x8_0[30|5] w_n80_n96# sonos_8x8_0[9|9]/dw_n80_n96# sonos_8x8
Xsonos_8x8_0[31|5] w_n80_n96# sonos_8x8_0[9|9]/dw_n80_n96# sonos_8x8
Xsonos_8x8_0[32|5] w_n80_n96# sonos_8x8_0[9|9]/dw_n80_n96# sonos_8x8
Xsonos_8x8_0[33|5] w_n80_n96# sonos_8x8_0[9|9]/dw_n80_n96# sonos_8x8
Xsonos_8x8_0[34|5] w_n80_n96# sonos_8x8_0[9|9]/dw_n80_n96# sonos_8x8
Xsonos_8x8_0[35|5] w_n80_n96# sonos_8x8_0[9|9]/dw_n80_n96# sonos_8x8
Xsonos_8x8_0[36|5] w_n80_n96# sonos_8x8_0[9|9]/dw_n80_n96# sonos_8x8
Xsonos_8x8_0[37|5] w_n80_n96# sonos_8x8_0[9|9]/dw_n80_n96# sonos_8x8
Xsonos_8x8_0[38|5] w_n80_n96# sonos_8x8_0[9|9]/dw_n80_n96# sonos_8x8
Xsonos_8x8_0[39|5] w_n80_n96# sonos_8x8_0[9|9]/dw_n80_n96# sonos_8x8
Xsonos_8x8_0[40|5] w_n80_n96# sonos_8x8_0[9|9]/dw_n80_n96# sonos_8x8
Xsonos_8x8_0[41|5] w_n80_n96# sonos_8x8_0[9|9]/dw_n80_n96# sonos_8x8
Xsonos_8x8_0[42|5] w_n80_n96# sonos_8x8_0[9|9]/dw_n80_n96# sonos_8x8
Xsonos_8x8_0[43|5] w_n80_n96# sonos_8x8_0[9|9]/dw_n80_n96# sonos_8x8
Xsonos_8x8_0[44|5] w_n80_n96# sonos_8x8_0[9|9]/dw_n80_n96# sonos_8x8
Xsonos_8x8_0[45|5] w_n80_n96# sonos_8x8_0[9|9]/dw_n80_n96# sonos_8x8
Xsonos_8x8_0[46|5] w_n80_n96# sonos_8x8_0[9|9]/dw_n80_n96# sonos_8x8
Xsonos_8x8_0[47|5] w_n80_n96# sonos_8x8_0[9|9]/dw_n80_n96# sonos_8x8
Xsonos_8x8_0[48|5] w_n80_n96# sonos_8x8_0[9|9]/dw_n80_n96# sonos_8x8
Xsonos_8x8_0[49|5] w_n80_n96# sonos_8x8_0[9|9]/dw_n80_n96# sonos_8x8
Xsonos_8x8_0[50|5] w_n80_n96# sonos_8x8_0[9|9]/dw_n80_n96# sonos_8x8
Xsonos_8x8_0[0|6] w_n80_n96# sonos_8x8_0[9|9]/dw_n80_n96# sonos_8x8
Xsonos_8x8_0[1|6] w_n80_n96# sonos_8x8_0[9|9]/dw_n80_n96# sonos_8x8
Xsonos_8x8_0[2|6] w_n80_n96# sonos_8x8_0[9|9]/dw_n80_n96# sonos_8x8
Xsonos_8x8_0[3|6] w_n80_n96# sonos_8x8_0[9|9]/dw_n80_n96# sonos_8x8
Xsonos_8x8_0[4|6] w_n80_n96# sonos_8x8_0[9|9]/dw_n80_n96# sonos_8x8
Xsonos_8x8_0[5|6] w_n80_n96# sonos_8x8_0[9|9]/dw_n80_n96# sonos_8x8
Xsonos_8x8_0[6|6] w_n80_n96# sonos_8x8_0[9|9]/dw_n80_n96# sonos_8x8
Xsonos_8x8_0[7|6] w_n80_n96# sonos_8x8_0[9|9]/dw_n80_n96# sonos_8x8
Xsonos_8x8_0[8|6] w_n80_n96# sonos_8x8_0[9|9]/dw_n80_n96# sonos_8x8
Xsonos_8x8_0[9|6] w_n80_n96# sonos_8x8_0[9|9]/dw_n80_n96# sonos_8x8
Xsonos_8x8_0[10|6] w_n80_n96# sonos_8x8_0[9|9]/dw_n80_n96# sonos_8x8
Xsonos_8x8_0[11|6] w_n80_n96# sonos_8x8_0[9|9]/dw_n80_n96# sonos_8x8
Xsonos_8x8_0[12|6] w_n80_n96# sonos_8x8_0[9|9]/dw_n80_n96# sonos_8x8
Xsonos_8x8_0[13|6] w_n80_n96# sonos_8x8_0[9|9]/dw_n80_n96# sonos_8x8
Xsonos_8x8_0[14|6] w_n80_n96# sonos_8x8_0[9|9]/dw_n80_n96# sonos_8x8
Xsonos_8x8_0[15|6] w_n80_n96# sonos_8x8_0[9|9]/dw_n80_n96# sonos_8x8
Xsonos_8x8_0[16|6] w_n80_n96# sonos_8x8_0[9|9]/dw_n80_n96# sonos_8x8
Xsonos_8x8_0[17|6] w_n80_n96# sonos_8x8_0[9|9]/dw_n80_n96# sonos_8x8
Xsonos_8x8_0[18|6] w_n80_n96# sonos_8x8_0[9|9]/dw_n80_n96# sonos_8x8
Xsonos_8x8_0[19|6] w_n80_n96# sonos_8x8_0[9|9]/dw_n80_n96# sonos_8x8
Xsonos_8x8_0[20|6] w_n80_n96# sonos_8x8_0[9|9]/dw_n80_n96# sonos_8x8
Xsonos_8x8_0[21|6] w_n80_n96# sonos_8x8_0[9|9]/dw_n80_n96# sonos_8x8
Xsonos_8x8_0[22|6] w_n80_n96# sonos_8x8_0[9|9]/dw_n80_n96# sonos_8x8
Xsonos_8x8_0[23|6] w_n80_n96# sonos_8x8_0[9|9]/dw_n80_n96# sonos_8x8
Xsonos_8x8_0[24|6] w_n80_n96# sonos_8x8_0[9|9]/dw_n80_n96# sonos_8x8
Xsonos_8x8_0[25|6] w_n80_n96# sonos_8x8_0[9|9]/dw_n80_n96# sonos_8x8
Xsonos_8x8_0[26|6] w_n80_n96# sonos_8x8_0[9|9]/dw_n80_n96# sonos_8x8
Xsonos_8x8_0[27|6] w_n80_n96# sonos_8x8_0[9|9]/dw_n80_n96# sonos_8x8
Xsonos_8x8_0[28|6] w_n80_n96# sonos_8x8_0[9|9]/dw_n80_n96# sonos_8x8