* NGSPICE file created from user_analog_project_wrapper.ext - technology: sky130A

.subckt sky130_fd_bs_flash__special_sonosfet_star w_n436_n442# a_n33_36# dw_n436_n442#
+ a_22_n76# a_n84_n76#
X0 a_22_n76# a_n33_36# a_n84_n76# w_n436_n442# sky130_fd_bs_flash__special_sonosfet_star ad=1.395e+11p pd=1.52e+06u as=1.395e+11p ps=1.52e+06u w=450000u l=220000u
.ends

.subckt sonos_cell w_n144_n252# a_n144_n130# dw_n144_n252# a_n90_n244# a_n90_102#
+ li_n144_n60# a_n144_42#
X0 a_n90_102# a_n144_42# a_n90_n42# w_n144_n252# sky130_fd_pr__special_nfet_latch ad=0p pd=0u as=3.78e+11p ps=2.64e+06u w=900000u l=300000u
X1 a_n90_n42# a_n144_n130# a_n90_n244# w_n144_n252# sky130_fd_bs_flash__special_sonosfet_star ad=0p pd=0u as=5.13e+11p ps=2.94e+06u w=900000u l=440000u
.ends

.subckt sonos_cell_mirrored sonos_cell_0/a_n144_n130# sonos_cell_0/a_n144_42# sonos_cell_1/dw_n144_n252#
+ w_160_160# sonos_cell_1/a_n144_42# sonos_cell_0/li_n144_n60# sonos_cell_1/a_n144_n130#
+ sonos_cell_1/a_n90_102# sonos_cell_1/a_n90_n244# sonos_cell_1/li_n144_n60#
Xsonos_cell_0 w_160_160# sonos_cell_0/a_n144_n130# sonos_cell_1/dw_n144_n252# sonos_cell_1/a_n90_n244#
+ sonos_cell_1/a_n90_102# sonos_cell_0/li_n144_n60# sonos_cell_0/a_n144_42# sonos_cell
Xsonos_cell_1 w_160_160# sonos_cell_1/a_n144_n130# sonos_cell_1/dw_n144_n252# sonos_cell_1/a_n90_n244#
+ sonos_cell_1/a_n90_102# sonos_cell_1/li_n144_n60# sonos_cell_1/a_n144_42# sonos_cell
.ends

.subckt sonos_8x8 w_n80_n96# dw_n80_n96#
Xsonos_cell_mirrored_0[0|0] w_n80_n96# w_n80_n96# dw_n80_n96# w_n80_n96# w_n80_n96#
+ w_n80_n96# w_n80_n96# w_n80_n96# w_n80_n96# w_n80_n96# sonos_cell_mirrored
Xsonos_cell_mirrored_0[1|0] w_n80_n96# w_n80_n96# dw_n80_n96# w_n80_n96# w_n80_n96#
+ w_n80_n96# w_n80_n96# w_n80_n96# w_n80_n96# w_n80_n96# sonos_cell_mirrored
Xsonos_cell_mirrored_0[2|0] w_n80_n96# w_n80_n96# dw_n80_n96# w_n80_n96# w_n80_n96#
+ w_n80_n96# w_n80_n96# w_n80_n96# w_n80_n96# w_n80_n96# sonos_cell_mirrored
Xsonos_cell_mirrored_0[3|0] w_n80_n96# w_n80_n96# dw_n80_n96# w_n80_n96# w_n80_n96#
+ w_n80_n96# w_n80_n96# w_n80_n96# w_n80_n96# w_n80_n96# sonos_cell_mirrored
Xsonos_cell_mirrored_0[0|1] w_n80_n96# w_n80_n96# dw_n80_n96# w_n80_n96# w_n80_n96#
+ w_n80_n96# w_n80_n96# w_n80_n96# w_n80_n96# w_n80_n96# sonos_cell_mirrored
Xsonos_cell_mirrored_0[1|1] w_n80_n96# w_n80_n96# dw_n80_n96# w_n80_n96# w_n80_n96#
+ w_n80_n96# w_n80_n96# w_n80_n96# w_n80_n96# w_n80_n96# sonos_cell_mirrored
Xsonos_cell_mirrored_0[2|1] w_n80_n96# w_n80_n96# dw_n80_n96# w_n80_n96# w_n80_n96#
+ w_n80_n96# w_n80_n96# w_n80_n96# w_n80_n96# w_n80_n96# sonos_cell_mirrored
Xsonos_cell_mirrored_0[3|1] w_n80_n96# w_n80_n96# dw_n80_n96# w_n80_n96# w_n80_n96#
+ w_n80_n96# w_n80_n96# w_n80_n96# w_n80_n96# w_n80_n96# sonos_cell_mirrored
Xsonos_cell_mirrored_0[0|2] w_n80_n96# w_n80_n96# dw_n80_n96# w_n80_n96# w_n80_n96#
+ w_n80_n96# w_n80_n96# w_n80_n96# w_n80_n96# w_n80_n96# sonos_cell_mirrored
Xsonos_cell_mirrored_0[1|2] w_n80_n96# w_n80_n96# dw_n80_n96# w_n80_n96# w_n80_n96#
+ w_n80_n96# w_n80_n96# w_n80_n96# w_n80_n96# w_n80_n96# sonos_cell_mirrored
Xsonos_cell_mirrored_0[2|2] w_n80_n96# w_n80_n96# dw_n80_n96# w_n80_n96# w_n80_n96#
+ w_n80_n96# w_n80_n96# w_n80_n96# w_n80_n96# w_n80_n96# sonos_cell_mirrored
Xsonos_cell_mirrored_0[3|2] w_n80_n96# w_n80_n96# dw_n80_n96# w_n80_n96# w_n80_n96#
+ w_n80_n96# w_n80_n96# w_n80_n96# w_n80_n96# w_n80_n96# sonos_cell_mirrored
Xsonos_cell_mirrored_0[0|3] w_n80_n96# w_n80_n96# dw_n80_n96# w_n80_n96# w_n80_n96#
+ w_n80_n96# w_n80_n96# w_n80_n96# w_n80_n96# w_n80_n96# sonos_cell_mirrored
Xsonos_cell_mirrored_0[1|3] w_n80_n96# w_n80_n96# dw_n80_n96# w_n80_n96# w_n80_n96#
+ w_n80_n96# w_n80_n96# w_n80_n96# w_n80_n96# w_n80_n96# sonos_cell_mirrored
Xsonos_cell_mirrored_0[2|3] w_n80_n96# w_n80_n96# dw_n80_n96# w_n80_n96# w_n80_n96#
+ w_n80_n96# w_n80_n96# w_n80_n96# w_n80_n96# w_n80_n96# sonos_cell_mirrored
Xsonos_cell_mirrored_0[3|3] w_n80_n96# w_n80_n96# dw_n80_n96# w_n80_n96# w_n80_n96#
+ w_n80_n96# w_n80_n96# w_n80_n96# w_n80_n96# w_n80_n96# sonos_cell_mirrored
Xsonos_cell_mirrored_0[0|4] w_n80_n96# w_n80_n96# dw_n80_n96# w_n80_n96# w_n80_n96#
+ w_n80_n96# w_n80_n96# w_n80_n96# w_n80_n96# w_n80_n96# sonos_cell_mirrored
Xsonos_cell_mirrored_0[1|4] w_n80_n96# w_n80_n96# dw_n80_n96# w_n80_n96# w_n80_n96#
+ w_n80_n96# w_n80_n96# w_n80_n96# w_n80_n96# w_n80_n96# sonos_cell_mirrored
Xsonos_cell_mirrored_0[2|4] w_n80_n96# w_n80_n96# dw_n80_n96# w_n80_n96# w_n80_n96#
+ w_n80_n96# w_n80_n96# w_n80_n96# w_n80_n96# w_n80_n96# sonos_cell_mirrored
Xsonos_cell_mirrored_0[3|4] w_n80_n96# w_n80_n96# dw_n80_n96# w_n80_n96# w_n80_n96#
+ w_n80_n96# w_n80_n96# w_n80_n96# w_n80_n96# w_n80_n96# sonos_cell_mirrored
Xsonos_cell_mirrored_0[0|5] w_n80_n96# w_n80_n96# dw_n80_n96# w_n80_n96# w_n80_n96#
+ w_n80_n96# w_n80_n96# w_n80_n96# w_n80_n96# w_n80_n96# sonos_cell_mirrored
Xsonos_cell_mirrored_0[1|5] w_n80_n96# w_n80_n96# dw_n80_n96# w_n80_n96# w_n80_n96#
+ w_n80_n96# w_n80_n96# w_n80_n96# w_n80_n96# w_n80_n96# sonos_cell_mirrored
Xsonos_cell_mirrored_0[2|5] w_n80_n96# w_n80_n96# dw_n80_n96# w_n80_n96# w_n80_n96#
+ w_n80_n96# w_n80_n96# w_n80_n96# w_n80_n96# w_n80_n96# sonos_cell_mirrored
Xsonos_cell_mirrored_0[3|5] w_n80_n96# w_n80_n96# dw_n80_n96# w_n80_n96# w_n80_n96#
+ w_n80_n96# w_n80_n96# w_n80_n96# w_n80_n96# w_n80_n96# sonos_cell_mirrored
Xsonos_cell_mirrored_0[0|6] w_n80_n96# w_n80_n96# dw_n80_n96# w_n80_n96# w_n80_n96#
+ w_n80_n96# w_n80_n96# w_n80_n96# w_n80_n96# w_n80_n96# sonos_cell_mirrored
Xsonos_cell_mirrored_0[1|6] w_n80_n96# w_n80_n96# dw_n80_n96# w_n80_n96# w_n80_n96#
+ w_n80_n96# w_n80_n96# w_n80_n96# w_n80_n96# w_n80_n96# sonos_cell_mirrored
Xsonos_cell_mirrored_0[2|6] w_n80_n96# w_n80_n96# dw_n80_n96# w_n80_n96# w_n80_n96#
+ w_n80_n96# w_n80_n96# w_n80_n96# w_n80_n96# w_n80_n96# sonos_cell_mirrored
Xsonos_cell_mirrored_0[3|6] w_n80_n96# w_n80_n96# dw_n80_n96# w_n80_n96# w_n80_n96#
+ w_n80_n96# w_n80_n96# w_n80_n96# w_n80_n96# w_n80_n96# sonos_cell_mirrored
Xsonos_cell_mirrored_0[0|7] w_n80_n96# w_n80_n96# dw_n80_n96# w_n80_n96# w_n80_n96#
+ w_n80_n96# w_n80_n96# w_n80_n96# w_n80_n96# w_n80_n96# sonos_cell_mirrored
Xsonos_cell_mirrored_0[1|7] w_n80_n96# w_n80_n96# dw_n80_n96# w_n80_n96# w_n80_n96#
+ w_n80_n96# w_n80_n96# w_n80_n96# w_n80_n96# w_n80_n96# sonos_cell_mirrored
Xsonos_cell_mirrored_0[2|7] w_n80_n96# w_n80_n96# dw_n80_n96# w_n80_n96# w_n80_n96#
+ w_n80_n96# w_n80_n96# w_n80_n96# w_n80_n96# w_n80_n96# sonos_cell_mirrored
Xsonos_cell_mirrored_0[3|7] w_n80_n96# w_n80_n96# dw_n80_n96# w_n80_n96# w_n80_n96#
+ w_n80_n96# w_n80_n96# w_n80_n96# w_n80_n96# w_n80_n96# sonos_cell_mirrored
.ends

.subckt sonos_array_240x250x64 w_n80_n96# sonos_8x8_0[9|9]/dw_n80_n96#
Xsonos_8x8_0[0|0] w_n80_n96# sonos_8x8_0[9|9]/dw_n80_n96# sonos_8x8
Xsonos_8x8_0[1|0] w_n80_n96# sonos_8x8_0[9|9]/dw_n80_n96# sonos_8x8
Xsonos_8x8_0[2|0] w_n80_n96# sonos_8x8_0[9|9]/dw_n80_n96# sonos_8x8
Xsonos_8x8_0[3|0] w_n80_n96# sonos_8x8_0[9|9]/dw_n80_n96# sonos_8x8
Xsonos_8x8_0[4|0] w_n80_n96# sonos_8x8_0[9|9]/dw_n80_n96# sonos_8x8
Xsonos_8x8_0[5|0] w_n80_n96# sonos_8x8_0[9|9]/dw_n80_n96# sonos_8x8
Xsonos_8x8_0[6|0] w_n80_n96# sonos_8x8_0[9|9]/dw_n80_n96# sonos_8x8
Xsonos_8x8_0[7|0] w_n80_n96# sonos_8x8_0[9|9]/dw_n80_n96# sonos_8x8
Xsonos_8x8_0[8|0] w_n80_n96# sonos_8x8_0[9|9]/dw_n80_n96# sonos_8x8
Xsonos_8x8_0[9|0] w_n80_n96# sonos_8x8_0[9|9]/dw_n80_n96# sonos_8x8
Xsonos_8x8_0[10|0] w_n80_n96# sonos_8x8_0[9|9]/dw_n80_n96# sonos_8x8
Xsonos_8x8_0[11|0] w_n80_n96# sonos_8x8_0[9|9]/dw_n80_n96# sonos_8x8
Xsonos_8x8_0[12|0] w_n80_n96# sonos_8x8_0[9|9]/dw_n80_n96# sonos_8x8
Xsonos_8x8_0[13|0] w_n80_n96# sonos_8x8_0[9|9]/dw_n80_n96# sonos_8x8
Xsonos_8x8_0[14|0] w_n80_n96# sonos_8x8_0[9|9]/dw_n80_n96# sonos_8x8
Xsonos_8x8_0[15|0] w_n80_n96# sonos_8x8_0[9|9]/dw_n80_n96# sonos_8x8
Xsonos_8x8_0[16|0] w_n80_n96# sonos_8x8_0[9|9]/dw_n80_n96# sonos_8x8
Xsonos_8x8_0[17|0] w_n80_n96# sonos_8x8_0[9|9]/dw_n80_n96# sonos_8x8
Xsonos_8x8_0[18|0] w_n80_n96# sonos_8x8_0[9|9]/dw_n80_n96# sonos_8x8
Xsonos_8x8_0[19|0] w_n80_n96# sonos_8x8_0[9|9]/dw_n80_n96# sonos_8x8
Xsonos_8x8_0[20|0] w_n80_n96# sonos_8x8_0[9|9]/dw_n80_n96# sonos_8x8
Xsonos_8x8_0[21|0] w_n80_n96# sonos_8x8_0[9|9]/dw_n80_n96# sonos_8x8
Xsonos_8x8_0[22|0] w_n80_n96# sonos_8x8_0[9|9]/dw_n80_n96# sonos_8x8
Xsonos_8x8_0[23|0] w_n80_n96# sonos_8x8_0[9|9]/dw_n80_n96# sonos_8x8
Xsonos_8x8_0[24|0] w_n80_n96# sonos_8x8_0[9|9]/dw_n80_n96# sonos_8x8
Xsonos_8x8_0[25|0] w_n80_n96# sonos_8x8_0[9|9]/dw_n80_n96# sonos_8x8
Xsonos_8x8_0[26|0] w_n80_n96# sonos_8x8_0[9|9]/dw_n80_n96# sonos_8x8
Xsonos_8x8_0[27|0] w_n80_n96# sonos_8x8_0[9|9]/dw_n80_n96# sonos_8x8
Xsonos_8x8_0[28|0] w_n80_n96# sonos_8x8_0[9|9]/dw_n80_n96# sonos_8x8
Xsonos_8x8_0[29|0] w_n80_n96# sonos_8x8_0[9|9]/dw_n80_n96# sonos_8x8
Xsonos_8x8_0[30|0] w_n80_n96# sonos_8x8_0[9|9]/dw_n80_n96# sonos_8x8
Xsonos_8x8_0[31|0] w_n80_n96# sonos_8x8_0[9|9]/dw_n80_n96# sonos_8x8
Xsonos_8x8_0[32|0] w_n80_n96# sonos_8x8_0[9|9]/dw_n80_n96# sonos_8x8
Xsonos_8x8_0[33|0] w_n80_n96# sonos_8x8_0[9|9]/dw_n80_n96# sonos_8x8
Xsonos_8x8_0[34|0] w_n80_n96# sonos_8x8_0[9|9]/dw_n80_n96# sonos_8x8
Xsonos_8x8_0[35|0] w_n80_n96# sonos_8x8_0[9|9]/dw_n80_n96# sonos_8x8
Xsonos_8x8_0[36|0] w_n80_n96# sonos_8x8_0[9|9]/dw_n80_n96# sonos_8x8
Xsonos_8x8_0[37|0] w_n80_n96# sonos_8x8_0[9|9]/dw_n80_n96# sonos_8x8
Xsonos_8x8_0[38|0] w_n80_n96# sonos_8x8_0[9|9]/dw_n80_n96# sonos_8x8
Xsonos_8x8_0[39|0] w_n80_n96# sonos_8x8_0[9|9]/dw_n80_n96# sonos_8x8
Xsonos_8x8_0[40|0] w_n80_n96# sonos_8x8_0[9|9]/dw_n80_n96# sonos_8x8
Xsonos_8x8_0[41|0] w_n80_n96# sonos_8x8_0[9|9]/dw_n80_n96# sonos_8x8
Xsonos_8x8_0[42|0] w_n80_n96# sonos_8x8_0[9|9]/dw_n80_n96# sonos_8x8
Xsonos_8x8_0[43|0] w_n80_n96# sonos_8x8_0[9|9]/dw_n80_n96# sonos_8x8
Xsonos_8x8_0[44|0] w_n80_n96# sonos_8x8_0[9|9]/dw_n80_n96# sonos_8x8
Xsonos_8x8_0[45|0] w_n80_n96# sonos_8x8_0[9|9]/dw_n80_n96# sonos_8x8
Xsonos_8x8_0[46|0] w_n80_n96# sonos_8x8_0[9|9]/dw_n80_n96# sonos_8x8
Xsonos_8x8_0[47|0] w_n80_n96# sonos_8x8_0[9|9]/dw_n80_n96# sonos_8x8
Xsonos_8x8_0[48|0] w_n80_n96# sonos_8x8_0[9|9]/dw_n80_n96# sonos_8x8
Xsonos_8x8_0[49|0] w_n80_n96# sonos_8x8_0[9|9]/dw_n80_n96# sonos_8x8
Xsonos_8x8_0[50|0] w_n80_n96# sonos_8x8_0[9|9]/dw_n80_n96# sonos_8x8
Xsonos_8x8_0[51|0] w_n80_n96# sonos_8x8_0[9|9]/dw_n80_n96# sonos_8x8
Xsonos_8x8_0[52|0] w_n80_n96# sonos_8x8_0[9|9]/dw_n80_n96# sonos_8x8
Xsonos_8x8_0[53|0] w_n80_n96# sonos_8x8_0[9|9]/dw_n80_n96# sonos_8x8
Xsonos_8x8_0[54|0] w_n80_n96# sonos_8x8_0[9|9]/dw_n80_n96# sonos_8x8
Xsonos_8x8_0[55|0] w_n80_n96# sonos_8x8_0[9|9]/dw_n80_n96# sonos_8x8
Xsonos_8x8_0[56|0] w_n80_n96# sonos_8x8_0[9|9]/dw_n80_n96# sonos_8x8
Xsonos_8x8_0[57|0] w_n80_n96# sonos_8x8_0[9|9]/dw_n80_n96# sonos_8x8
Xsonos_8x8_0[58|0] w_n80_n96# sonos_8x8_0[9|9]/dw_n80_n96# sonos_8x8
Xsonos_8x8_0[59|0] w_n80_n96# sonos_8x8_0[9|9]/dw_n80_n96# sonos_8x8
Xsonos_8x8_0[60|0] w_n80_n96# sonos_8x8_0[9|9]/dw_n80_n96# sonos_8x8
Xsonos_8x8_0[61|0] w_n80_n96# sonos_8x8_0[9|9]/dw_n80_n96# sonos_8x8
Xsonos_8x8_0[62|0] w_n80_n96# sonos_8x8_0[9|9]/dw_n80_n96# sonos_8x8
Xsonos_8x8_0[63|0] w_n80_n96# sonos_8x8_0[9|9]/dw_n80_n96# sonos_8x8
Xsonos_8x8_0[64|0] w_n80_n96# sonos_8x8_0[9|9]/dw_n80_n96# sonos_8x8
Xsonos_8x8_0[65|0] w_n80_n96# sonos_8x8_0[9|9]/dw_n80_n96# sonos_8x8
Xsonos_8x8_0[66|0] w_n80_n96# sonos_8x8_0[9|9]/dw_n80_n96# sonos_8x8
Xsonos_8x8_0[67|0] w_n80_n96# sonos_8x8_0[9|9]/dw_n80_n96# sonos_8x8
Xsonos_8x8_0[68|0] w_n80_n96# sonos_8x8_0[9|9]/dw_n80_n96# sonos_8x8
Xsonos_8x8_0[69|0] w_n80_n96# sonos_8x8_0[9|9]/dw_n80_n96# sonos_8x8
Xsonos_8x8_0[70|0] w_n80_n96# sonos_8x8_0[9|9]/dw_n80_n96# sonos_8x8
Xsonos_8x8_0[71|0] w_n80_n96# sonos_8x8_0[9|9]/dw_n80_n96# sonos_8x8
Xsonos_8x8_0[72|0] w_n80_n96# sonos_8x8_0[9|9]/dw_n80_n96# sonos_8x8
Xsonos_8x8_0[73|0] w_n80_n96# sonos_8x8_0[9|9]/dw_n80_n96# sonos_8x8
Xsonos_8x8_0[74|0] w_n80_n96# sonos_8x8_0[9|9]/dw_n80_n96# sonos_8x8
Xsonos_8x8_0[75|0] w_n80_n96# sonos_8x8_0[9|9]/dw_n80_n96# sonos_8x8
Xsonos_8x8_0[76|0] w_n80_n96# sonos_8x8_0[9|9]/dw_n80_n96# sonos_8x8
Xsonos_8x8_0[77|0] w_n80_n96# sonos_8x8_0[9|9]/dw_n80_n96# sonos_8x8
Xsonos_8x8_0[78|0] w_n80_n96# sonos_8x8_0[9|9]/dw_n80_n96# sonos_8x8
Xsonos_8x8_0[79|0] w_n80_n96# sonos_8x8_0[9|9]/dw_n80_n96# sonos_8x8
Xsonos_8x8_0[80|0] w_n80_n96# sonos_8x8_0[9|9]/dw_n80_n96# sonos_8x8
Xsonos_8x8_0[81|0] w_n80_n96# sonos_8x8_0[9|9]/dw_n80_n96# sonos_8x8
Xsonos_8x8_0[82|0] w_n80_n96# sonos_8x8_0[9|9]/dw_n80_n96# sonos_8x8
Xsonos_8x8_0[83|0] w_n80_n96# sonos_8x8_0[9|9]/dw_n80_n96# sonos_8x8
Xsonos_8x8_0[84|0] w_n80_n96# sonos_8x8_0[9|9]/dw_n80_n96# sonos_8x8
Xsonos_8x8_0[85|0] w_n80_n96# sonos_8x8_0[9|9]/dw_n80_n96# sonos_8x8
Xsonos_8x8_0[86|0] w_n80_n96# sonos_8x8_0[9|9]/dw_n80_n96# sonos_8x8
Xsonos_8x8_0[87|0] w_n80_n96# sonos_8x8_0[9|9]/dw_n80_n96# sonos_8x8
Xsonos_8x8_0[88|0] w_n80_n96# sonos_8x8_0[9|9]/dw_n80_n96# sonos_8x8
Xsonos_8x8_0[89|0] w_n80_n96# sonos_8x8_0[9|9]/dw_n80_n96# sonos_8x8
Xsonos_8x8_0[90|0] w_n80_n96# sonos_8x8_0[9|9]/dw_n80_n96# sonos_8x8
Xsonos_8x8_0[91|0] w_n80_n96# sonos_8x8_0[9|9]/dw_n80_n96# sonos_8x8
Xsonos_8x8_0[92|0] w_n80_n96# sonos_8x8_0[9|9]/dw_n80_n96# sonos_8x8
Xsonos_8x8_0[93|0] w_n80_n96# sonos_8x8_0[9|9]/dw_n80_n96# sonos_8x8
Xsonos_8x8_0[94|0] w_n80_n96# sonos_8x8_0[9|9]/dw_n80_n96# sonos_8x8
Xsonos_8x8_0[95|0] w_n80_n96# sonos_8x8_0[9|9]/dw_n80_n96# sonos_8x8
Xsonos_8x8_0[96|0] w_n80_n96# sonos_8x8_0[9|9]/dw_n80_n96# sonos_8x8
Xsonos_8x8_0[97|0] w_n80_n96# sonos_8x8_0[9|9]/dw_n80_n96# sonos_8x8
Xsonos_8x8_0[98|0] w_n80_n96# sonos_8x8_0[9|9]/dw_n80_n96# sonos_8x8
Xsonos_8x8_0[99|0] w_n80_n96# sonos_8x8_0[9|9]/dw_n80_n96# sonos_8x8
Xsonos_8x8_0[100|0] w_n80_n96# sonos_8x8_0[9|9]/dw_n80_n96# sonos_8x8
Xsonos_8x8_0[101|0] w_n80_n96# sonos_8x8_0[9|9]/dw_n80_n96# sonos_8x8
Xsonos_8x8_0[102|0] w_n80_n96# sonos_8x8_0[9|9]/dw_n80_n96# sonos_8x8
Xsonos_8x8_0[103|0] w_n80_n96# sonos_8x8_0[9|9]/dw_n80_n96# sonos_8x8
Xsonos_8x8_0[104|0] w_n80_n96# sonos_8x8_0[9|9]/dw_n80_n96# sonos_8x8
Xsonos_8x8_0[105|0] w_n80_n96# sonos_8x8_0[9|9]/dw_n80_n96# sonos_8x8
Xsonos_8x8_0[106|0] w_n80_n96# sonos_8x8_0[9|9]/dw_n80_n96# sonos_8x8
Xsonos_8x8_0[107|0] w_n80_n96# sonos_8x8_0[9|9]/dw_n80_n96# sonos_8x8
Xsonos_8x8_0[108|0] w_n80_n96# sonos_8x8_0[9|9]/dw_n80_n96# sonos_8x8
Xsonos_8x8_0[109|0] w_n80_n96# sonos_8x8_0[9|9]/dw_n80_n96# sonos_8x8
Xsonos_8x8_0[110|0] w_n80_n96# sonos_8x8_0[9|9]/dw_n80_n96# sonos_8x8
Xsonos_8x8_0[111|0] w_n80_n96# sonos_8x8_0[9|9]/dw_n80_n96# sonos_8x8
Xsonos_8x8_0[112|0] w_n80_n96# sonos_8x8_0[9|9]/dw_n80_n96# sonos_8x8
Xsonos_8x8_0[113|0] w_n80_n96# sonos_8x8_0[9|9]/dw_n80_n96# sonos_8x8
Xsonos_8x8_0[114|0] w_n80_n96# sonos_8x8_0[9|9]/dw_n80_n96# sonos_8x8
Xsonos_8x8_0[115|0] w_n80_n96# sonos_8x8_0[9|9]/dw_n80_n96# sonos_8x8
Xsonos_8x8_0[116|0] w_n80_n96# sonos_8x8_0[9|9]/dw_n80_n96# sonos_8x8
Xsonos_8x8_0[117|0] w_n80_n96# sonos_8x8_0[9|9]/dw_n80_n96# sonos_8x8
Xsonos_8x8_0[118|0] w_n80_n96# sonos_8x8_0[9|9]/dw_n80_n96# sonos_8x8
Xsonos_8x8_0[119|0] w_n80_n96# sonos_8x8_0[9|9]/dw_n80_n96# sonos_8x8
Xsonos_8x8_0[120|0] w_n80_n96# sonos_8x8_0[9|9]/dw_n80_n96# sonos_8x8
Xsonos_8x8_0[121|0] w_n80_n96# sonos_8x8_0[9|9]/dw_n80_n96# sonos_8x8
Xsonos_8x8_0[122|0] w_n80_n96# sonos_8x8_0[9|9]/dw_n80_n96# sonos_8x8
Xsonos_8x8_0[123|0] w_n80_n96# sonos_8x8_0[9|9]/dw_n80_n96# sonos_8x8
Xsonos_8x8_0[124|0] w_n80_n96# sonos_8x8_0[9|9]/dw_n80_n96# sonos_8x8
Xsonos_8x8_0[125|0] w_n80_n96# sonos_8x8_0[9|9]/dw_n80_n96# sonos_8x8
Xsonos_8x8_0[126|0] w_n80_n96# sonos_8x8_0[9|9]/dw_n80_n96# sonos_8x8
Xsonos_8x8_0[127|0] w_n80_n96# sonos_8x8_0[9|9]/dw_n80_n96# sonos_8x8
Xsonos_8x8_0[128|0] w_n80_n96# sonos_8x8_0[9|9]/dw_n80_n96# sonos_8x8
Xsonos_8x8_0[129|0] w_n80_n96# sonos_8x8_0[9|9]/dw_n80_n96# sonos_8x8
Xsonos_8x8_0[130|0] w_n80_n96# sonos_8x8_0[9|9]/dw_n80_n96# sonos_8x8
Xsonos_8x8_0[131|0] w_n80_n96# sonos_8x8_0[9|9]/dw_n80_n96# sonos_8x8
Xsonos_8x8_0[132|0] w_n80_n96# sonos_8x8_0[9|9]/dw_n80_n96# sonos_8x8
Xsonos_8x8_0[133|0] w_n80_n96# sonos_8x8_0[9|9]/dw_n80_n96# sonos_8x8
Xsonos_8x8_0[134|0] w_n80_n96# sonos_8x8_0[9|9]/dw_n80_n96# sonos_8x8
Xsonos_8x8_0[135|0] w_n80_n96# sonos_8x8_0[9|9]/dw_n80_n96# sonos_8x8
Xsonos_8x8_0[136|0] w_n80_n96# sonos_8x8_0[9|9]/dw_n80_n96# sonos_8x8
Xsonos_8x8_0[137|0] w_n80_n96# sonos_8x8_0[9|9]/dw_n80_n96# sonos_8x8
Xsonos_8x8_0[138|0] w_n80_n96# sonos_8x8_0[9|9]/dw_n80_n96# sonos_8x8
Xsonos_8x8_0[139|0] w_n80_n96# sonos_8x8_0[9|9]/dw_n80_n96# sonos_8x8
Xsonos_8x8_0[140|0] w_n80_n96# sonos_8x8_0[9|9]/dw_n80_n96# sonos_8x8
Xsonos_8x8_0[141|0] w_n80_n96# sonos_8x8_0[9|9]/dw_n80_n96# sonos_8x8
Xsonos_8x8_0[142|0] w_n80_n96# sonos_8x8_0[9|9]/dw_n80_n96# sonos_8x8
Xsonos_8x8_0[143|0] w_n80_n96# sonos_8x8_0[9|9]/dw_n80_n96# sonos_8x8
Xsonos_8x8_0[144|0] w_n80_n96# sonos_8x8_0[9|9]/dw_n80_n96# sonos_8x8
Xsonos_8x8_0[145|0] w_n80_n96# sonos_8x8_0[9|9]/dw_n80_n96# sonos_8x8
Xsonos_8x8_0[146|0] w_n80_n96# sonos_8x8_0[9|9]/dw_n80_n96# sonos_8x8
Xsonos_8x8_0[147|0] w_n80_n96# sonos_8x8_0[9|9]/dw_n80_n96# sonos_8x8
Xsonos_8x8_0[148|0] w_n80_n96# sonos_8x8_0[9|9]/dw_n80_n96# sonos_8x8
Xsonos_8x8_0[149|0] w_n80_n96# sonos_8x8_0[9|9]/dw_n80_n96# sonos_8x8
Xsonos_8x8_0[150|0] w_n80_n96# sonos_8x8_0[9|9]/dw_n80_n96# sonos_8x8
Xsonos_8x8_0[151|0] w_n80_n96# sonos_8x8_0[9|9]/dw_n80_n96# sonos_8x8
Xsonos_8x8_0[152|0] w_n80_n96# sonos_8x8_0[9|9]/dw_n80_n96# sonos_8x8
Xsonos_8x8_0[153|0] w_n80_n96# sonos_8x8_0[9|9]/dw_n80_n96# sonos_8x8
Xsonos_8x8_0[154|0] w_n80_n96# sonos_8x8_0[9|9]/dw_n80_n96# sonos_8x8
Xsonos_8x8_0[155|0] w_n80_n96# sonos_8x8_0[9|9]/dw_n80_n96# sonos_8x8
Xsonos_8x8_0[156|0] w_n80_n96# sonos_8x8_0[9|9]/dw_n80_n96# sonos_8x8
Xsonos_8x8_0[157|0] w_n80_n96# sonos_8x8_0[9|9]/dw_n80_n96# sonos_8x8
Xsonos_8x8_0[158|0] w_n80_n96# sonos_8x8_0[9|9]/dw_n80_n96# sonos_8x8
Xsonos_8x8_0[159|0] w_n80_n96# sonos_8x8_0[9|9]/dw_n80_n96# sonos_8x8
Xsonos_8x8_0[160|0] w_n80_n96# sonos_8x8_0[9|9]/dw_n80_n96# sonos_8x8
Xsonos_8x8_0[161|0] w_n80_n96# sonos_8x8_0[9|9]/dw_n80_n96# sonos_8x8
Xsonos_8x8_0[162|0] w_n80_n96# sonos_8x8_0[9|9]/dw_n80_n96# sonos_8x8
Xsonos_8x8_0[163|0] w_n80_n96# sonos_8x8_0[9|9]/dw_n80_n96# sonos_8x8
Xsonos_8x8_0[164|0] w_n80_n96# sonos_8x8_0[9|9]/dw_n80_n96# sonos_8x8
Xsonos_8x8_0[165|0] w_n80_n96# sonos_8x8_0[9|9]/dw_n80_n96# sonos_8x8
Xsonos_8x8_0[166|0] w_n80_n96# sonos_8x8_0[9|9]/dw_n80_n96# sonos_8x8
Xsonos_8x8_0[167|0] w_n80_n96# sonos_8x8_0[9|9]/dw_n80_n96# sonos_8x8
Xsonos_8x8_0[168|0] w_n80_n96# sonos_8x8_0[9|9]/dw_n80_n96# sonos_8x8
Xsonos_8x8_0[169|0] w_n80_n96# sonos_8x8_0[9|9]/dw_n80_n96# sonos_8x8
Xsonos_8x8_0[170|0] w_n80_n96# sonos_8x8_0[9|9]/dw_n80_n96# sonos_8x8
Xsonos_8x8_0[171|0] w_n80_n96# sonos_8x8_0[9|9]/dw_n80_n96# sonos_8x8
Xsonos_8x8_0[172|0] w_n80_n96# sonos_8x8_0[9|9]/dw_n80_n96# sonos_8x8
Xsonos_8x8_0[173|0] w_n80_n96# sonos_8x8_0[9|9]/dw_n80_n96# sonos_8x8
Xsonos_8x8_0[174|0] w_n80_n96# sonos_8x8_0[9|9]/dw_n80_n96# sonos_8x8
Xsonos_8x8_0[175|0] w_n80_n96# sonos_8x8_0[9|9]/dw_n80_n96# sonos_8x8
Xsonos_8x8_0[176|0] w_n80_n96# sonos_8x8_0[9|9]/dw_n80_n96# sonos_8x8
Xsonos_8x8_0[177|0] w_n80_n96# sonos_8x8_0[9|9]/dw_n80_n96# sonos_8x8
Xsonos_8x8_0[178|0] w_n80_n96# sonos_8x8_0[9|9]/dw_n80_n96# sonos_8x8
Xsonos_8x8_0[179|0] w_n80_n96# sonos_8x8_0[9|9]/dw_n80_n96# sonos_8x8
Xsonos_8x8_0[180|0] w_n80_n96# sonos_8x8_0[9|9]/dw_n80_n96# sonos_8x8
Xsonos_8x8_0[181|0] w_n80_n96# sonos_8x8_0[9|9]/dw_n80_n96# sonos_8x8
Xsonos_8x8_0[182|0] w_n80_n96# sonos_8x8_0[9|9]/dw_n80_n96# sonos_8x8
Xsonos_8x8_0[183|0] w_n80_n96# sonos_8x8_0[9|9]/dw_n80_n96# sonos_8x8
Xsonos_8x8_0[184|0] w_n80_n96# sonos_8x8_0[9|9]/dw_n80_n96# sonos_8x8
Xsonos_8x8_0[185|0] w_n80_n96# sonos_8x8_0[9|9]/dw_n80_n96# sonos_8x8
Xsonos_8x8_0[186|0] w_n80_n96# sonos_8x8_0[9|9]/dw_n80_n96# sonos_8x8
Xsonos_8x8_0[187|0] w_n80_n96# sonos_8x8_0[9|9]/dw_n80_n96# sonos_8x8
Xsonos_8x8_0[188|0] w_n80_n96# sonos_8x8_0[9|9]/dw_n80_n96# sonos_8x8
Xsonos_8x8_0[189|0] w_n80_n96# sonos_8x8_0[9|9]/dw_n80_n96# sonos_8x8
Xsonos_8x8_0[190|0] w_n80_n96# sonos_8x8_0[9|9]/dw_n80_n96# sonos_8x8
Xsonos_8x8_0[191|0] w_n80_n96# sonos_8x8_0[9|9]/dw_n80_n96# sonos_8x8
Xsonos_8x8_0[192|0] w_n80_n96# sonos_8x8_0[9|9]/dw_n80_n96# sonos_8x8
Xsonos_8x8_0[193|0] w_n80_n96# sonos_8x8_0[9|9]/dw_n80_n96# sonos_8x8
Xsonos_8x8_0[194|0] w_n80_n96# sonos_8x8_0[9|9]/dw_n80_n96# sonos_8x8
Xsonos_8x8_0[195|0] w_n80_n96# sonos_8x8_0[9|9]/dw_n80_n96# sonos_8x8
Xsonos_8x8_0[196|0] w_n80_n96# sonos_8x8_0[9|9]/dw_n80_n96# sonos_8x8
Xsonos_8x8_0[197|0] w_n80_n96# sonos_8x8_0[9|9]/dw_n80_n96# sonos_8x8
Xsonos_8x8_0[198|0] w_n80_n96# sonos_8x8_0[9|9]/dw_n80_n96# sonos_8x8
Xsonos_8x8_0[199|0] w_n80_n96# sonos_8x8_0[9|9]/dw_n80_n96# sonos_8x8
Xsonos_8x8_0[200|0] w_n80_n96# sonos_8x8_0[9|9]/dw_n80_n96# sonos_8x8
Xsonos_8x8_0[201|0] w_n80_n96# sonos_8x8_0[9|9]/dw_n80_n96# sonos_8x8
Xsonos_8x8_0[202|0] w_n80_n96# sonos_8x8_0[9|9]/dw_n80_n96# sonos_8x8
Xsonos_8x8_0[203|0] w_n80_n96# sonos_8x8_0[9|9]/dw_n80_n96# sonos_8x8
Xsonos_8x8_0[204|0] w_n80_n96# sonos_8x8_0[9|9]/dw_n80_n96# sonos_8x8
Xsonos_8x8_0[205|0] w_n80_n96# sonos_8x8_0[9|9]/dw_n80_n96# sonos_8x8
Xsonos_8x8_0[206|0] w_n80_n96# sonos_8x8_0[9|9]/dw_n80_n96# sonos_8x8
Xsonos_8x8_0[207|0] w_n80_n96# sonos_8x8_0[9|9]/dw_n80_n96# sonos_8x8
Xsonos_8x8_0[208|0] w_n80_n96# sonos_8x8_0[9|9]/dw_n80_n96# sonos_8x8
Xsonos_8x8_0[209|0] w_n80_n96# sonos_8x8_0[9|9]/dw_n80_n96# sonos_8x8
Xsonos_8x8_0[210|0] w_n80_n96# sonos_8x8_0[9|9]/dw_n80_n96# sonos_8x8
Xsonos_8x8_0[211|0] w_n80_n96# sonos_8x8_0[9|9]/dw_n80_n96# sonos_8x8
Xsonos_8x8_0[212|0] w_n80_n96# sonos_8x8_0[9|9]/dw_n80_n96# sonos_8x8
Xsonos_8x8_0[213|0] w_n80_n96# sonos_8x8_0[9|9]/dw_n80_n96# sonos_8x8
Xsonos_8x8_0[214|0] w_n80_n96# sonos_8x8_0[9|9]/dw_n80_n96# sonos_8x8
Xsonos_8x8_0[0|1] w_n80_n96# sonos_8x8_0[9|9]/dw_n80_n96# sonos_8x8
Xsonos_8x8_0[1|1] w_n80_n96# sonos_8x8_0[9|9]/dw_n80_n96# sonos_8x8
Xsonos_8x8_0[2|1] w_n80_n96# sonos_8x8_0[9|9]/dw_n80_n96# sonos_8x8
Xsonos_8x8_0[3|1] w_n80_n96# sonos_8x8_0[9|9]/dw_n80_n96# sonos_8x8
Xsonos_8x8_0[4|1] w_n80_n96# sonos_8x8_0[9|9]/dw_n80_n96# sonos_8x8
Xsonos_8x8_0[5|1] w_n80_n96# sonos_8x8_0[9|9]/dw_n80_n96# sonos_8x8
Xsonos_8x8_0[6|1] w_n80_n96# sonos_8x8_0[9|9]/dw_n80_n96# sonos_8x8
Xsonos_8x8_0[7|1] w_n80_n96# sonos_8x8_0[9|9]/dw_n80_n96# sonos_8x8
Xsonos_8x8_0[8|1] w_n80_n96# sonos_8x8_0[9|9]/dw_n80_n96# sonos_8x8
Xsonos_8x8_0[9|1] w_n80_n96# sonos_8x8_0[9|9]/dw_n80_n96# sonos_8x8
Xsonos_8x8_0[10|1] w_n80_n96# sonos_8x8_0[9|9]/dw_n80_n96# sonos_8x8
Xsonos_8x8_0[11|1] w_n80_n96# sonos_8x8_0[9|9]/dw_n80_n96# sonos_8x8
Xsonos_8x8_0[12|1] w_n80_n96# sonos_8x8_0[9|9]/dw_n80_n96# sonos_8x8
Xsonos_8x8_0[13|1] w_n80_n96# sonos_8x8_0[9|9]/dw_n80_n96# sonos_8x8
Xsonos_8x8_0[14|1] w_n80_n96# sonos_8x8_0[9|9]/dw_n80_n96# sonos_8x8
Xsonos_8x8_0[15|1] w_n80_n96# sonos_8x8_0[9|9]/dw_n80_n96# sonos_8x8
Xsonos_8x8_0[16|1] w_n80_n96# sonos_8x8_0[9|9]/dw_n80_n96# sonos_8x8
Xsonos_8x8_0[17|1] w_n80_n96# sonos_8x8_0[9|9]/dw_n80_n96# sonos_8x8
Xsonos_8x8_0[18|1] w_n80_n96# sonos_8x8_0[9|9]/dw_n80_n96# sonos_8x8
Xsonos_8x8_0[19|1] w_n80_n96# sonos_8x8_0[9|9]/dw_n80_n96# sonos_8x8
Xsonos_8x8_0[20|1] w_n80_n96# sonos_8x8_0[9|9]/dw_n80_n96# sonos_8x8
Xsonos_8x8_0[21|1] w_n80_n96# sonos_8x8_0[9|9]/dw_n80_n96# sonos_8x8
Xsonos_8x8_0[22|1] w_n80_n96# sonos_8x8_0[9|9]/dw_n80_n96# sonos_8x8
Xsonos_8x8_0[23|1] w_n80_n96# sonos_8x8_0[9|9]/dw_n80_n96# sonos_8x8
Xsonos_8x8_0[24|1] w_n80_n96# sonos_8x8_0[9|9]/dw_n80_n96# sonos_8x8
Xsonos_8x8_0[25|1] w_n80_n96# sonos_8x8_0[9|9]/dw_n80_n96# sonos_8x8
Xsonos_8x8_0[26|1] w_n80_n96# sonos_8x8_0[9|9]/dw_n80_n96# sonos_8x8
Xsonos_8x8_0[27|1] w_n80_n96# sonos_8x8_0[9|9]/dw_n80_n96# sonos_8x8
Xsonos_8x8_0[28|1] w_n80_n96# sonos_8x8_0[9|9]/dw_n80_n96# sonos_8x8
Xsonos_8x8_0[29|1] w_n80_n96# sonos_8x8_0[9|9]/dw_n80_n96# sonos_8x8
Xsonos_8x8_0[30|1] w_n80_n96# sonos_8x8_0[9|9]/dw_n80_n96# sonos_8x8
Xsonos_8x8_0[31|1] w_n80_n96# sonos_8x8_0[9|9]/dw_n80_n96# sonos_8x8
Xsonos_8x8_0[32|1] w_n80_n96# sonos_8x8_0[9|9]/dw_n80_n96# sonos_8x8
Xsonos_8x8_0[33|1] w_n80_n96# sonos_8x8_0[9|9]/dw_n80_n96# sonos_8x8
Xsonos_8x8_0[34|1] w_n80_n96# sonos_8x8_0[9|9]/dw_n80_n96# sonos_8x8
Xsonos_8x8_0[35|1] w_n80_n96# sonos_8x8_0[9|9]/dw_n80_n96# sonos_8x8
Xsonos_8x8_0[36|1] w_n80_n96# sonos_8x8_0[9|9]/dw_n80_n96# sonos_8x8
Xsonos_8x8_0[37|1] w_n80_n96# sonos_8x8_0[9|9]/dw_n80_n96# sonos_8x8
Xsonos_8x8_0[38|1] w_n80_n96# sonos_8x8_0[9|9]/dw_n80_n96# sonos_8x8
Xsonos_8x8_0[39|1] w_n80_n96# sonos_8x8_0[9|9]/dw_n80_n96# sonos_8x8
Xsonos_8x8_0[40|1] w_n80_n96# sonos_8x8_0[9|9]/dw_n80_n96# sonos_8x8
Xsonos_8x8_0[41|1] w_n80_n96# sonos_8x8_0[9|9]/dw_n80_n96# sonos_8x8
Xsonos_8x8_0[42|1] w_n80_n96# sonos_8x8_0[9|9]/dw_n80_n96# sonos_8x8
Xsonos_8x8_0[43|1] w_n80_n96# sonos_8x8_0[9|9]/dw_n80_n96# sonos_8x8
Xsonos_8x8_0[44|1] w_n80_n96# sonos_8x8_0[9|9]/dw_n80_n96# sonos_8x8
Xsonos_8x8_0[45|1] w_n80_n96# sonos_8x8_0[9|9]/dw_n80_n96# sonos_8x8
Xsonos_8x8_0[46|1] w_n80_n96# sonos_8x8_0[9|9]/dw_n80_n96# sonos_8x8
Xsonos_8x8_0[47|1] w_n80_n96# sonos_8x8_0[9|9]/dw_n80_n96# sonos_8x8
Xsonos_8x8_0[48|1] w_n80_n96# sonos_8x8_0[9|9]/dw_n80_n96# sonos_8x8
Xsonos_8x8_0[49|1] w_n80_n96# sonos_8x8_0[9|9]/dw_n80_n96# sonos_8x8
Xsonos_8x8_0[50|1] w_n80_n96# sonos_8x8_0[9|9]/dw_n80_n96# sonos_8x8
Xsonos_8x8_0[51|1] w_n80_n96# sonos_8x8_0[9|9]/dw_n80_n96# sonos_8x8
Xsonos_8x8_0[52|1] w_n80_n96# sonos_8x8_0[9|9]/dw_n80_n96# sonos_8x8
Xsonos_8x8_0[53|1] w_n80_n96# sonos_8x8_0[9|9]/dw_n80_n96# sonos_8x8
Xsonos_8x8_0[54|1] w_n80_n96# sonos_8x8_0[9|9]/dw_n80_n96# sonos_8x8
Xsonos_8x8_0[55|1] w_n80_n96# sonos_8x8_0[9|9]/dw_n80_n96# sonos_8x8
Xsonos_8x8_0[56|1] w_n80_n96# sonos_8x8_0[9|9]/dw_n80_n96# sonos_8x8
Xsonos_8x8_0[57|1] w_n80_n96# sonos_8x8_0[9|9]/dw_n80_n96# sonos_8x8
Xsonos_8x8_0[58|1] w_n80_n96# sonos_8x8_0[9|9]/dw_n80_n96# sonos_8x8
Xsonos_8x8_0[59|1] w_n80_n96# sonos_8x8_0[9|9]/dw_n80_n96# sonos_8x8
Xsonos_8x8_0[60|1] w_n80_n96# sonos_8x8_0[9|9]/dw_n80_n96# sonos_8x8
Xsonos_8x8_0[61|1] w_n80_n96# sonos_8x8_0[9|9]/dw_n80_n96# sonos_8x8
Xsonos_8x8_0[62|1] w_n80_n96# sonos_8x8_0[9|9]/dw_n80_n96# sonos_8x8
Xsonos_8x8_0[63|1] w_n80_n96# sonos_8x8_0[9|9]/dw_n80_n96# sonos_8x8
Xsonos_8x8_0[64|1] w_n80_n96# sonos_8x8_0[9|9]/dw_n80_n96# sonos_8x8
Xsonos_8x8_0[65|1] w_n80_n96# sonos_8x8_0[9|9]/dw_n80_n96# sonos_8x8
Xsonos_8x8_0[66|1] w_n80_n96# sonos_8x8_0[9|9]/dw_n80_n96# sonos_8x8
Xsonos_8x8_0[67|1] w_n80_n96# sonos_8x8_0[9|9]/dw_n80_n96# sonos_8x8
Xsonos_8x8_0[68|1] w_n80_n96# sonos_8x8_0[9|9]/dw_n80_n96# sonos_8x8
Xsonos_8x8_0[69|1] w_n80_n96# sonos_8x8_0[9|9]/dw_n80_n96# sonos_8x8
Xsonos_8x8_0[70|1] w_n80_n96# sonos_8x8_0[9|9]/dw_n80_n96# sonos_8x8
Xsonos_8x8_0[71|1] w_n80_n96# sonos_8x8_0[9|9]/dw_n80_n96# sonos_8x8
Xsonos_8x8_0[72|1] w_n80_n96# sonos_8x8_0[9|9]/dw_n80_n96# sonos_8x8
Xsonos_8x8_0[73|1] w_n80_n96# sonos_8x8_0[9|9]/dw_n80_n96# sonos_8x8
Xsonos_8x8_0[74|1] w_n80_n96# sonos_8x8_0[9|9]/dw_n80_n96# sonos_8x8
Xsonos_8x8_0[75|1] w_n80_n96# sonos_8x8_0[9|9]/dw_n80_n96# sonos_8x8
Xsonos_8x8_0[76|1] w_n80_n96# sonos_8x8_0[9|9]/dw_n80_n96# sonos_8x8
Xsonos_8x8_0[77|1] w_n80_n96# sonos_8x8_0[9|9]/dw_n80_n96# sonos_8x8
Xsonos_8x8_0[78|1] w_n80_n96# sonos_8x8_0[9|9]/dw_n80_n96# sonos_8x8
Xsonos_8x8_0[79|1] w_n80_n96# sonos_8x8_0[9|9]/dw_n80_n96# sonos_8x8
Xsonos_8x8_0[80|1] w_n80_n96# sonos_8x8_0[9|9]/dw_n80_n96# sonos_8x8
Xsonos_8x8_0[81|1] w_n80_n96# sonos_8x8_0[9|9]/dw_n80_n96# sonos_8x8
Xsonos_8x8_0[82|1] w_n80_n96# sonos_8x8_0[9|9]/dw_n80_n96# sonos_8x8
Xsonos_8x8_0[83|1] w_n80_n96# sonos_8x8_0[9|9]/dw_n80_n96# sonos_8x8
Xsonos_8x8_0[84|1] w_n80_n96# sonos_8x8_0[9|9]/dw_n80_n96# sonos_8x8
Xsonos_8x8_0[85|1] w_n80_n96# sonos_8x8_0[9|9]/dw_n80_n96# sonos_8x8
Xsonos_8x8_0[86|1] w_n80_n96# sonos_8x8_0[9|9]/dw_n80_n96# sonos_8x8
Xsonos_8x8_0[87|1] w_n80_n96# sonos_8x8_0[9|9]/dw_n80_n96# sonos_8x8
Xsonos_8x8_0[88|1] w_n80_n96# sonos_8x8_0[9|9]/dw_n80_n96# sonos_8x8
Xsonos_8x8_0[89|1] w_n80_n96# sonos_8x8_0[9|9]/dw_n80_n96# sonos_8x8
Xsonos_8x8_0[90|1] w_n80_n96# sonos_8x8_0[9|9]/dw_n80_n96# sonos_8x8
Xsonos_8x8_0[91|1] w_n80_n96# sonos_8x8_0[9|9]/dw_n80_n96# sonos_8x8
Xsonos_8x8_0[92|1] w_n80_n96# sonos_8x8_0[9|9]/dw_n80_n96# sonos_8x8
Xsonos_8x8_0[93|1] w_n80_n96# sonos_8x8_0[9|9]/dw_n80_n96# sonos_8x8
Xsonos_8x8_0[94|1] w_n80_n96# sonos_8x8_0[9|9]/dw_n80_n96# sonos_8x8
Xsonos_8x8_0[95|1] w_n80_n96# sonos_8x8_0[9|9]/dw_n80_n96# sonos_8x8
Xsonos_8x8_0[96|1] w_n80_n96# sonos_8x8_0[9|9]/dw_n80_n96# sonos_8x8
Xsonos_8x8_0[97|1] w_n80_n96# sonos_8x8_0[9|9]/dw_n80_n96# sonos_8x8
Xsonos_8x8_0[98|1] w_n80_n96# sonos_8x8_0[9|9]/dw_n80_n96# sonos_8x8
Xsonos_8x8_0[99|1] w_n80_n96# sonos_8x8_0[9|9]/dw_n80_n96# sonos_8x8
Xsonos_8x8_0[100|1] w_n80_n96# sonos_8x8_0[9|9]/dw_n80_n96# sonos_8x8
Xsonos_8x8_0[101|1] w_n80_n96# sonos_8x8_0[9|9]/dw_n80_n96# sonos_8x8
Xsonos_8x8_0[102|1] w_n80_n96# sonos_8x8_0[9|9]/dw_n80_n96# sonos_8x8
Xsonos_8x8_0[103|1] w_n80_n96# sonos_8x8_0[9|9]/dw_n80_n96# sonos_8x8
Xsonos_8x8_0[104|1] w_n80_n96# sonos_8x8_0[9|9]/dw_n80_n96# sonos_8x8
Xsonos_8x8_0[105|1] w_n80_n96# sonos_8x8_0[9|9]/dw_n80_n96# sonos_8x8
Xsonos_8x8_0[106|1] w_n80_n96# sonos_8x8_0[9|9]/dw_n80_n96# sonos_8x8
Xsonos_8x8_0[107|1] w_n80_n96# sonos_8x8_0[9|9]/dw_n80_n96# sonos_8x8
Xsonos_8x8_0[108|1] w_n80_n96# sonos_8x8_0[9|9]/dw_n80_n96# sonos_8x8
Xsonos_8x8_0[109|1] w_n80_n96# sonos_8x8_0[9|9]/dw_n80_n96# sonos_8x8
Xsonos_8x8_0[110|1] w_n80_n96# sonos_8x8_0[9|9]/dw_n80_n96# sonos_8x8
Xsonos_8x8_0[111|1] w_n80_n96# sonos_8x8_0[9|9]/dw_n80_n96# sonos_8x8
Xsonos_8x8_0[112|1] w_n80_n96# sonos_8x8_0[9|9]/dw_n80_n96# sonos_8x8
Xsonos_8x8_0[113|1] w_n80_n96# sonos_8x8_0[9|9]/dw_n80_n96# sonos_8x8
Xsonos_8x8_0[114|1] w_n80_n96# sonos_8x8_0[9|9]/dw_n80_n96# sonos_8x8
Xsonos_8x8_0[115|1] w_n80_n96# sonos_8x8_0[9|9]/dw_n80_n96# sonos_8x8
Xsonos_8x8_0[116|1] w_n80_n96# sonos_8x8_0[9|9]/dw_n80_n96# sonos_8x8
Xsonos_8x8_0[117|1] w_n80_n96# sonos_8x8_0[9|9]/dw_n80_n96# sonos_8x8
Xsonos_8x8_0[118|1] w_n80_n96# sonos_8x8_0[9|9]/dw_n80_n96# sonos_8x8
Xsonos_8x8_0[119|1] w_n80_n96# sonos_8x8_0[9|9]/dw_n80_n96# sonos_8x8
Xsonos_8x8_0[120|1] w_n80_n96# sonos_8x8_0[9|9]/dw_n80_n96# sonos_8x8