* NGSPICE file created from user_analog_project_wrapper.ext - technology: sky130A

.subckt sky130_fd_pr__res_xhigh_po_5p73_JY438B a_n573_50# a_n573_n482# w_n802_n711#
+ VSUBS
X0 a_n573_50# a_n573_n482# VSUBS sky130_fd_pr__res_xhigh_po w=5.73 l=0.5
.ends

.subckt sky130_fd_bs_flash__special_sonosfet_star w_n436_n442# a_n33_36# dw_n436_n442#
+ a_22_n76# a_n84_n76#
X0 a_22_n76# a_n33_36# a_n84_n76# w_n436_n442# sky130_fd_bs_flash__special_sonosfet_star ad=0.14 pd=1.52 as=0.14 ps=1.52 w=0.45 l=0.22
.ends

.subckt sonos_1t_iso G D VNB S B
Xsky130_fd_bs_flash__special_sonosfet_star_0 B G VNB D S sky130_fd_bs_flash__special_sonosfet_star
.ends

.subckt sonos_endcap_tb dw_n408_n1786# m1_n300_n1886# w_n120_n1786# w_n408_n1360#
+ a_n408_n922# a_n354_n1046#
X0 a_n354_n1046# a_n408_n922# a_n354_n1046# w_n408_n1360# sky130_fd_pr__nfet_01v8 ad=1.01 pd=5.84 as=0.45 ps=2.8 w=0.9 l=0.3
.ends

.subckt sonos_cell w_n144_n252# a_n144_n130# dw_n144_n252# a_n90_n244# a_n90_102#
+ li_n144_n60# a_n144_42#
X0 a_n90_102# a_n144_42# a_n90_n42# w_n144_n252# sky130_fd_pr__special_nfet_latch ad=0.45 pd=2.8 as=0.189 ps=1.32 w=0.9 l=0.3
X1 a_n90_n42# a_n144_n130# a_n90_n244# w_n144_n252# sky130_fd_bs_flash__special_sonosfet_star ad=0.189 pd=1.32 as=0.513 ps=2.94 w=0.9 l=0.44
.ends

.subckt sonos_array_orig sonos_endcap_lr_1[3]/a_n616_n202# sonos_endcap_lr_1[0]/a_n454_n406#
+ sonos_cell_2[2|7]/li_n144_n60# sonos_endcap_lr_2[1]/a_n616_n202# sonos_endcap_lr_2[0]/a_n616_28#
+ sonos_endcap_lr_1[3]/a_n454_n406# sonos_endcap_lr_2[1]/a_n616_28# sonos_endcap_lr_2[1]/a_n454_n406#
+ sonos_endcap_lr_2[2]/a_n616_28# sonos_endcap_lr_2[3]/a_n616_28# sonos_endcap_lr_1[1]/a_n616_n202#
+ sonos_cell_2[3|7]/li_n144_n60# sonos_cell_2[3|4]/a_n90_102# sonos_endcap_lr_1[1]/a_n454_n406#
+ sonos_cell_1[3|7]/li_n144_n60# sonos_cell_2[3|1]/a_n90_n244# sonos_endcap_lr_2[2]/a_n616_n202#
+ sonos_cell_2[3|6]/a_n90_n244# sonos_endcap_lr_2[2]/a_n454_n406# sonos_cell_2[3|1]/a_n90_102#
+ sonos_cell_1[2|7]/li_n144_n60# sonos_cell_2[3|0]/a_n90_n244# sonos_endcap_lr_1[2]/a_n616_n202#
+ sonos_cell_2[3|5]/a_n90_102# sonos_cell_2[0|7]/li_n144_n60# sonos_cell_2[3|3]/a_n90_n244#
+ dw_0_n64# sonos_cell_2[3|5]/a_n90_n244# sonos_endcap_lr_2[0]/a_n616_n202# sonos_cell_2[3|3]/a_n90_102#
+ w_n498_n930# sonos_endcap_lr_1[2]/a_n454_n406# sonos_endcap_lr_1[0]/a_n616_28# sonos_cell_2[3|7]/a_n90_102#
+ sonos_endcap_lr_1[1]/a_n616_28# sonos_cell_1[1|7]/li_n144_n60# sonos_endcap_lr_2[3]/a_n616_n202#
+ sonos_endcap_lr_1[2]/a_n616_28# sonos_cell_2[3|4]/a_n90_n244# sonos_endcap_lr_2[0]/a_n454_n406#
+ sonos_endcap_lr_1[3]/a_n616_28# sonos_cell_2[3|2]/a_n90_102# sonos_cell_2[3|2]/a_n90_n244#
+ sonos_endcap_lr_1[0]/a_n616_n202# sonos_cell_2[1|7]/li_n144_n60# sonos_cell_2[3|7]/a_n90_n244#
+ sonos_cell_2[3|6]/a_n90_102# sonos_cell_1[0|7]/li_n144_n60# sonos_cell_2[3|0]/a_n90_102#
+ sonos_endcap_lr_2[3]/a_n454_n406#
Xsonos_endcap_tb_1[0] dw_0_n64# sonos_cell_2[3|0]/a_n90_n244# w_n498_n930# w_n498_n930#
+ sonos_array_corner_3/a_n72_n552# sonos_cell_2[3|0]/a_n90_102# sonos_endcap_tb
Xsonos_endcap_tb_1[1] dw_0_n64# sonos_cell_2[3|1]/a_n90_n244# w_n498_n930# w_n498_n930#
+ sonos_array_corner_3/a_n72_n552# sonos_cell_2[3|1]/a_n90_102# sonos_endcap_tb
Xsonos_endcap_tb_1[2] dw_0_n64# sonos_cell_2[3|2]/a_n90_n244# w_n498_n930# w_n498_n930#
+ sonos_array_corner_3/a_n72_n552# sonos_cell_2[3|2]/a_n90_102# sonos_endcap_tb
Xsonos_endcap_tb_1[3] dw_0_n64# sonos_cell_2[3|3]/a_n90_n244# w_n498_n930# w_n498_n930#
+ sonos_array_corner_3/a_n72_n552# sonos_cell_2[3|3]/a_n90_102# sonos_endcap_tb
Xsonos_endcap_tb_1[4] dw_0_n64# sonos_cell_2[3|4]/a_n90_n244# w_n498_n930# w_n498_n930#
+ sonos_array_corner_3/a_n72_n552# sonos_cell_2[3|4]/a_n90_102# sonos_endcap_tb
Xsonos_endcap_tb_1[5] dw_0_n64# sonos_cell_2[3|5]/a_n90_n244# w_n498_n930# w_n498_n930#
+ sonos_array_corner_3/a_n72_n552# sonos_cell_2[3|5]/a_n90_102# sonos_endcap_tb
Xsonos_endcap_tb_1[6] dw_0_n64# sonos_cell_2[3|6]/a_n90_n244# w_n498_n930# w_n498_n930#
+ sonos_array_corner_3/a_n72_n552# sonos_cell_2[3|6]/a_n90_102# sonos_endcap_tb
Xsonos_endcap_tb_1[7] dw_0_n64# sonos_cell_2[3|7]/a_n90_n244# w_n498_n930# w_n498_n930#
+ sonos_array_corner_3/a_n72_n552# sonos_cell_2[3|7]/a_n90_102# sonos_endcap_tb
Xsonos_endcap_tb_2[0] dw_0_n64# sonos_cell_2[3|0]/a_n90_n244# w_n498_n930# w_n498_n930#
+ sonos_array_corner_4/a_n72_n552# sonos_cell_2[3|0]/a_n90_102# sonos_endcap_tb
Xsonos_endcap_tb_2[1] dw_0_n64# sonos_cell_2[3|1]/a_n90_n244# w_n498_n930# w_n498_n930#
+ sonos_array_corner_4/a_n72_n552# sonos_cell_2[3|1]/a_n90_102# sonos_endcap_tb
Xsonos_endcap_tb_2[2] dw_0_n64# sonos_cell_2[3|2]/a_n90_n244# w_n498_n930# w_n498_n930#
+ sonos_array_corner_4/a_n72_n552# sonos_cell_2[3|2]/a_n90_102# sonos_endcap_tb
Xsonos_endcap_tb_2[3] dw_0_n64# sonos_cell_2[3|3]/a_n90_n244# w_n498_n930# w_n498_n930#
+ sonos_array_corner_4/a_n72_n552# sonos_cell_2[3|3]/a_n90_102# sonos_endcap_tb
Xsonos_endcap_tb_2[4] dw_0_n64# sonos_cell_2[3|4]/a_n90_n244# w_n498_n930# w_n498_n930#
+ sonos_array_corner_4/a_n72_n552# sonos_cell_2[3|4]/a_n90_102# sonos_endcap_tb
Xsonos_endcap_tb_2[5] dw_0_n64# sonos_cell_2[3|5]/a_n90_n244# w_n498_n930# w_n498_n930#
+ sonos_array_corner_4/a_n72_n552# sonos_cell_2[3|5]/a_n90_102# sonos_endcap_tb
Xsonos_endcap_tb_2[6] dw_0_n64# sonos_cell_2[3|6]/a_n90_n244# w_n498_n930# w_n498_n930#
+ sonos_array_corner_4/a_n72_n552# sonos_cell_2[3|6]/a_n90_102# sonos_endcap_tb
Xsonos_endcap_tb_2[7] dw_0_n64# sonos_cell_2[3|7]/a_n90_n244# w_n498_n930# w_n498_n930#
+ sonos_array_corner_4/a_n72_n552# sonos_cell_2[3|7]/a_n90_102# sonos_endcap_tb
Xsonos_cell_1[0|0] w_n498_n930# a_0_28# dw_0_n64# sonos_cell_2[3|0]/a_n90_n244# sonos_cell_2[3|0]/a_n90_102#
+ sonos_cell_1[0|7]/li_n144_n60# a_0_200# sonos_cell
Xsonos_cell_1[1|0] w_n498_n930# sonos_endcap_lr_1[1]/a_n72_28# dw_0_n64# sonos_cell_2[3|0]/a_n90_n244#
+ sonos_cell_2[3|0]/a_n90_102# sonos_cell_1[1|7]/li_n144_n60# sonos_cell_1[1|7]/a_n144_42#
+ sonos_cell
Xsonos_cell_1[2|0] w_n498_n930# sonos_endcap_lr_1[2]/a_n72_28# dw_0_n64# sonos_cell_2[3|0]/a_n90_n244#
+ sonos_cell_2[3|0]/a_n90_102# sonos_cell_1[2|7]/li_n144_n60# sonos_cell_1[2|7]/a_n144_42#
+ sonos_cell
Xsonos_cell_1[3|0] w_n498_n930# sonos_endcap_lr_1[3]/a_n72_28# dw_0_n64# sonos_cell_2[3|0]/a_n90_n244#
+ sonos_cell_2[3|0]/a_n90_102# sonos_cell_1[3|7]/li_n144_n60# sonos_cell_1[3|7]/a_n144_42#
+ sonos_cell
Xsonos_cell_1[0|1] w_n498_n930# a_0_28# dw_0_n64# sonos_cell_2[3|1]/a_n90_n244# sonos_cell_2[3|1]/a_n90_102#
+ sonos_cell_1[0|7]/li_n144_n60# a_0_200# sonos_cell
Xsonos_cell_1[1|1] w_n498_n930# sonos_endcap_lr_1[1]/a_n72_28# dw_0_n64# sonos_cell_2[3|1]/a_n90_n244#
+ sonos_cell_2[3|1]/a_n90_102# sonos_cell_1[1|7]/li_n144_n60# sonos_cell_1[1|7]/a_n144_42#
+ sonos_cell
Xsonos_cell_1[2|1] w_n498_n930# sonos_endcap_lr_1[2]/a_n72_28# dw_0_n64# sonos_cell_2[3|1]/a_n90_n244#
+ sonos_cell_2[3|1]/a_n90_102# sonos_cell_1[2|7]/li_n144_n60# sonos_cell_1[2|7]/a_n144_42#
+ sonos_cell
Xsonos_cell_1[3|1] w_n498_n930# sonos_endcap_lr_1[3]/a_n72_28# dw_0_n64# sonos_cell_2[3|1]/a_n90_n244#
+ sonos_cell_2[3|1]/a_n90_102# sonos_cell_1[3|7]/li_n144_n60# sonos_cell_1[3|7]/a_n144_42#
+ sonos_cell
Xsonos_cell_1[0|2] w_n498_n930# a_0_28# dw_0_n64# sonos_cell_2[3|2]/a_n90_n244# sonos_cell_2[3|2]/a_n90_102#
+ sonos_cell_1[0|7]/li_n144_n60# a_0_200# sonos_cell
Xsonos_cell_1[1|2] w_n498_n930# sonos_endcap_lr_1[1]/a_n72_28# dw_0_n64# sonos_cell_2[3|2]/a_n90_n244#
+ sonos_cell_2[3|2]/a_n90_102# sonos_cell_1[1|7]/li_n144_n60# sonos_cell_1[1|7]/a_n144_42#
+ sonos_cell
Xsonos_cell_1[2|2] w_n498_n930# sonos_endcap_lr_1[2]/a_n72_28# dw_0_n64# sonos_cell_2[3|2]/a_n90_n244#
+ sonos_cell_2[3|2]/a_n90_102# sonos_cell_1[2|7]/li_n144_n60# sonos_cell_1[2|7]/a_n144_42#
+ sonos_cell
Xsonos_cell_1[3|2] w_n498_n930# sonos_endcap_lr_1[3]/a_n72_28# dw_0_n64# sonos_cell_2[3|2]/a_n90_n244#
+ sonos_cell_2[3|2]/a_n90_102# sonos_cell_1[3|7]/li_n144_n60# sonos_cell_1[3|7]/a_n144_42#
+ sonos_cell
Xsonos_cell_1[0|3] w_n498_n930# a_0_28# dw_0_n64# sonos_cell_2[3|3]/a_n90_n244# sonos_cell_2[3|3]/a_n90_102#
+ sonos_cell_1[0|7]/li_n144_n60# a_0_200# sonos_cell
Xsonos_cell_1[1|3] w_n498_n930# sonos_endcap_lr_1[1]/a_n72_28# dw_0_n64# sonos_cell_2[3|3]/a_n90_n244#
+ sonos_cell_2[3|3]/a_n90_102# sonos_cell_1[1|7]/li_n144_n60# sonos_cell_1[1|7]/a_n144_42#
+ sonos_cell
Xsonos_cell_1[2|3] w_n498_n930# sonos_endcap_lr_1[2]/a_n72_28# dw_0_n64# sonos_cell_2[3|3]/a_n90_n244#
+ sonos_cell_2[3|3]/a_n90_102# sonos_cell_1[2|7]/li_n144_n60# sonos_cell_1[2|7]/a_n144_42#
+ sonos_cell
Xsonos_cell_1[3|3] w_n498_n930# sonos_endcap_lr_1[3]/a_n72_28# dw_0_n64# sonos_cell_2[3|3]/a_n90_n244#
+ sonos_cell_2[3|3]/a_n90_102# sonos_cell_1[3|7]/li_n144_n60# sonos_cell_1[3|7]/a_n144_42#
+ sonos_cell
Xsonos_cell_1[0|4] w_n498_n930# a_0_28# dw_0_n64# sonos_cell_2[3|4]/a_n90_n244# sonos_cell_2[3|4]/a_n90_102#
+ sonos_cell_1[0|7]/li_n144_n60# a_0_200# sonos_cell
Xsonos_cell_1[1|4] w_n498_n930# sonos_endcap_lr_1[1]/a_n72_28# dw_0_n64# sonos_cell_2[3|4]/a_n90_n244#
+ sonos_cell_2[3|4]/a_n90_102# sonos_cell_1[1|7]/li_n144_n60# sonos_cell_1[1|7]/a_n144_42#
+ sonos_cell
Xsonos_cell_1[2|4] w_n498_n930# sonos_endcap_lr_1[2]/a_n72_28# dw_0_n64# sonos_cell_2[3|4]/a_n90_n244#
+ sonos_cell_2[3|4]/a_n90_102# sonos_cell_1[2|7]/li_n144_n60# sonos_cell_1[2|7]/a_n144_42#
+ sonos_cell
Xsonos_cell_1[3|4] w_n498_n930# sonos_endcap_lr_1[3]/a_n72_28# dw_0_n64# sonos_cell_2[3|4]/a_n90_n244#
+ sonos_cell_2[3|4]/a_n90_102# sonos_cell_1[3|7]/li_n144_n60# sonos_cell_1[3|7]/a_n144_42#
+ sonos_cell
Xsonos_cell_1[0|5] w_n498_n930# a_0_28# dw_0_n64# sonos_cell_2[3|5]/a_n90_n244# sonos_cell_2[3|5]/a_n90_102#
+ sonos_cell_1[0|7]/li_n144_n60# a_0_200# sonos_cell
Xsonos_cell_1[1|5] w_n498_n930# sonos_endcap_lr_1[1]/a_n72_28# dw_0_n64# sonos_cell_2[3|5]/a_n90_n244#
+ sonos_cell_2[3|5]/a_n90_102# sonos_cell_1[1|7]/li_n144_n60# sonos_cell_1[1|7]/a_n144_42#
+ sonos_cell
Xsonos_cell_1[2|5] w_n498_n930# sonos_endcap_lr_1[2]/a_n72_28# dw_0_n64# sonos_cell_2[3|5]/a_n90_n244#
+ sonos_cell_2[3|5]/a_n90_102# sonos_cell_1[2|7]/li_n144_n60# sonos_cell_1[2|7]/a_n144_42#
+ sonos_cell
Xsonos_cell_1[3|5] w_n498_n930# sonos_endcap_lr_1[3]/a_n72_28# dw_0_n64# sonos_cell_2[3|5]/a_n90_n244#
+ sonos_cell_2[3|5]/a_n90_102# sonos_cell_1[3|7]/li_n144_n60# sonos_cell_1[3|7]/a_n144_42#
+ sonos_cell
Xsonos_cell_1[0|6] w_n498_n930# a_0_28# dw_0_n64# sonos_cell_2[3|6]/a_n90_n244# sonos_cell_2[3|6]/a_n90_102#
+ sonos_cell_1[0|7]/li_n144_n60# a_0_200# sonos_cell
Xsonos_cell_1[1|6] w_n498_n930# sonos_endcap_lr_1[1]/a_n72_28# dw_0_n64# sonos_cell_2[3|6]/a_n90_n244#
+ sonos_cell_2[3|6]/a_n90_102# sonos_cell_1[1|7]/li_n144_n60# sonos_cell_1[1|7]/a_n144_42#
+ sonos_cell
Xsonos_cell_1[2|6] w_n498_n930# sonos_endcap_lr_1[2]/a_n72_28# dw_0_n64# sonos_cell_2[3|6]/a_n90_n244#
+ sonos_cell_2[3|6]/a_n90_102# sonos_cell_1[2|7]/li_n144_n60# sonos_cell_1[2|7]/a_n144_42#
+ sonos_cell
Xsonos_cell_1[3|6] w_n498_n930# sonos_endcap_lr_1[3]/a_n72_28# dw_0_n64# sonos_cell_2[3|6]/a_n90_n244#
+ sonos_cell_2[3|6]/a_n90_102# sonos_cell_1[3|7]/li_n144_n60# sonos_cell_1[3|7]/a_n144_42#
+ sonos_cell
Xsonos_cell_1[0|7] w_n498_n930# a_0_28# dw_0_n64# sonos_cell_2[3|7]/a_n90_n244# sonos_cell_2[3|7]/a_n90_102#
+ sonos_cell_1[0|7]/li_n144_n60# a_0_200# sonos_cell
Xsonos_cell_1[1|7] w_n498_n930# sonos_endcap_lr_1[1]/a_n72_28# dw_0_n64# sonos_cell_2[3|7]/a_n90_n244#
+ sonos_cell_2[3|7]/a_n90_102# sonos_cell_1[1|7]/li_n144_n60# sonos_cell_1[1|7]/a_n144_42#
+ sonos_cell
Xsonos_cell_1[2|7] w_n498_n930# sonos_endcap_lr_1[2]/a_n72_28# dw_0_n64# sonos_cell_2[3|7]/a_n90_n244#
+ sonos_cell_2[3|7]/a_n90_102# sonos_cell_1[2|7]/li_n144_n60# sonos_cell_1[2|7]/a_n144_42#
+ sonos_cell
Xsonos_cell_1[3|7] w_n498_n930# sonos_endcap_lr_1[3]/a_n72_28# dw_0_n64# sonos_cell_2[3|7]/a_n90_n244#
+ sonos_cell_2[3|7]/a_n90_102# sonos_cell_1[3|7]/li_n144_n60# sonos_cell_1[3|7]/a_n144_42#
+ sonos_cell
Xsonos_cell_2[0|0] w_n498_n930# sonos_endcap_lr_2[3]/a_n72_28# dw_0_n64# sonos_cell_2[3|0]/a_n90_n244#
+ sonos_cell_2[3|0]/a_n90_102# sonos_cell_2[0|7]/li_n144_n60# sonos_cell_2[0|7]/a_n144_42#
+ sonos_cell
Xsonos_cell_2[1|0] w_n498_n930# sonos_endcap_lr_2[2]/a_n72_28# dw_0_n64# sonos_cell_2[3|0]/a_n90_n244#
+ sonos_cell_2[3|0]/a_n90_102# sonos_cell_2[1|7]/li_n144_n60# sonos_cell_2[1|7]/a_n144_42#
+ sonos_cell
Xsonos_cell_2[2|0] w_n498_n930# sonos_endcap_lr_2[1]/a_n72_28# dw_0_n64# sonos_cell_2[3|0]/a_n90_n244#
+ sonos_cell_2[3|0]/a_n90_102# sonos_cell_2[2|7]/li_n144_n60# sonos_cell_2[2|7]/a_n144_42#
+ sonos_cell
Xsonos_cell_2[3|0] w_n498_n930# sonos_endcap_lr_2[0]/a_n72_28# dw_0_n64# sonos_cell_2[3|0]/a_n90_n244#
+ sonos_cell_2[3|0]/a_n90_102# sonos_cell_2[3|7]/li_n144_n60# sonos_cell_2[3|7]/a_n144_42#
+ sonos_cell
Xsonos_cell_2[0|1] w_n498_n930# sonos_endcap_lr_2[3]/a_n72_28# dw_0_n64# sonos_cell_2[3|1]/a_n90_n244#
+ sonos_cell_2[3|1]/a_n90_102# sonos_cell_2[0|7]/li_n144_n60# sonos_cell_2[0|7]/a_n144_42#
+ sonos_cell
Xsonos_cell_2[1|1] w_n498_n930# sonos_endcap_lr_2[2]/a_n72_28# dw_0_n64# sonos_cell_2[3|1]/a_n90_n244#
+ sonos_cell_2[3|1]/a_n90_102# sonos_cell_2[1|7]/li_n144_n60# sonos_cell_2[1|7]/a_n144_42#
+ sonos_cell
Xsonos_cell_2[2|1] w_n498_n930# sonos_endcap_lr_2[1]/a_n72_28# dw_0_n64# sonos_cell_2[3|1]/a_n90_n244#
+ sonos_cell_2[3|1]/a_n90_102# sonos_cell_2[2|7]/li_n144_n60# sonos_cell_2[2|7]/a_n144_42#
+ sonos_cell
Xsonos_cell_2[3|1] w_n498_n930# sonos_endcap_lr_2[0]/a_n72_28# dw_0_n64# sonos_cell_2[3|1]/a_n90_n244#
+ sonos_cell_2[3|1]/a_n90_102# sonos_cell_2[3|7]/li_n144_n60# sonos_cell_2[3|7]/a_n144_42#
+ sonos_cell
Xsonos_cell_2[0|2] w_n498_n930# sonos_endcap_lr_2[3]/a_n72_28# dw_0_n64# sonos_cell_2[3|2]/a_n90_n244#
+ sonos_cell_2[3|2]/a_n90_102# sonos_cell_2[0|7]/li_n144_n60# sonos_cell_2[0|7]/a_n144_42#
+ sonos_cell
Xsonos_cell_2[1|2] w_n498_n930# sonos_endcap_lr_2[2]/a_n72_28# dw_0_n64# sonos_cell_2[3|2]/a_n90_n244#
+ sonos_cell_2[3|2]/a_n90_102# sonos_cell_2[1|7]/li_n144_n60# sonos_cell_2[1|7]/a_n144_42#
+ sonos_cell
Xsonos_cell_2[2|2] w_n498_n930# sonos_endcap_lr_2[1]/a_n72_28# dw_0_n64# sonos_cell_2[3|2]/a_n90_n244#
+ sonos_cell_2[3|2]/a_n90_102# sonos_cell_2[2|7]/li_n144_n60# sonos_cell_2[2|7]/a_n144_42#
+ sonos_cell
Xsonos_cell_2[3|2] w_n498_n930# sonos_endcap_lr_2[0]/a_n72_28# dw_0_n64# sonos_cell_2[3|2]/a_n90_n244#
+ sonos_cell_2[3|2]/a_n90_102# sonos_cell_2[3|7]/li_n144_n60# sonos_cell_2[3|7]/a_n144_42#
+ sonos_cell
Xsonos_cell_2[0|3] w_n498_n930# sonos_endcap_lr_2[3]/a_n72_28# dw_0_n64# sonos_cell_2[3|3]/a_n90_n244#
+ sonos_cell_2[3|3]/a_n90_102# sonos_cell_2[0|7]/li_n144_n60# sonos_cell_2[0|7]/a_n144_42#
+ sonos_cell
Xsonos_cell_2[1|3] w_n498_n930# sonos_endcap_lr_2[2]/a_n72_28# dw_0_n64# sonos_cell_2[3|3]/a_n90_n244#
+ sonos_cell_2[3|3]/a_n90_102# sonos_cell_2[1|7]/li_n144_n60# sonos_cell_2[1|7]/a_n144_42#
+ sonos_cell
Xsonos_cell_2[2|3] w_n498_n930# sonos_endcap_lr_2[1]/a_n72_28# dw_0_n64# sonos_cell_2[3|3]/a_n90_n244#
+ sonos_cell_2[3|3]/a_n90_102# sonos_cell_2[2|7]/li_n144_n60# sonos_cell_2[2|7]/a_n144_42#
+ sonos_cell
Xsonos_cell_2[3|3] w_n498_n930# sonos_endcap_lr_2[0]/a_n72_28# dw_0_n64# sonos_cell_2[3|3]/a_n90_n244#
+ sonos_cell_2[3|3]/a_n90_102# sonos_cell_2[3|7]/li_n144_n60# sonos_cell_2[3|7]/a_n144_42#
+ sonos_cell
Xsonos_cell_2[0|4] w_n498_n930# sonos_endcap_lr_2[3]/a_n72_28# dw_0_n64# sonos_cell_2[3|4]/a_n90_n244#
+ sonos_cell_2[3|4]/a_n90_102# sonos_cell_2[0|7]/li_n144_n60# sonos_cell_2[0|7]/a_n144_42#
+ sonos_cell
Xsonos_cell_2[1|4] w_n498_n930# sonos_endcap_lr_2[2]/a_n72_28# dw_0_n64# sonos_cell_2[3|4]/a_n90_n244#
+ sonos_cell_2[3|4]/a_n90_102# sonos_cell_2[1|7]/li_n144_n60# sonos_cell_2[1|7]/a_n144_42#
+ sonos_cell
Xsonos_cell_2[2|4] w_n498_n930# sonos_endcap_lr_2[1]/a_n72_28# dw_0_n64# sonos_cell_2[3|4]/a_n90_n244#
+ sonos_cell_2[3|4]/a_n90_102# sonos_cell_2[2|7]/li_n144_n60# sonos_cell_2[2|7]/a_n144_42#
+ sonos_cell
Xsonos_cell_2[3|4] w_n498_n930# sonos_endcap_lr_2[0]/a_n72_28# dw_0_n64# sonos_cell_2[3|4]/a_n90_n244#
+ sonos_cell_2[3|4]/a_n90_102# sonos_cell_2[3|7]/li_n144_n60# sonos_cell_2[3|7]/a_n144_42#
+ sonos_cell
Xsonos_cell_2[0|5] w_n498_n930# sonos_endcap_lr_2[3]/a_n72_28# dw_0_n64# sonos_cell_2[3|5]/a_n90_n244#
+ sonos_cell_2[3|5]/a_n90_102# sonos_cell_2[0|7]/li_n144_n60# sonos_cell_2[0|7]/a_n144_42#
+ sonos_cell
Xsonos_cell_2[1|5] w_n498_n930# sonos_endcap_lr_2[2]/a_n72_28# dw_0_n64# sonos_cell_2[3|5]/a_n90_n244#
+ sonos_cell_2[3|5]/a_n90_102# sonos_cell_2[1|7]/li_n144_n60# sonos_cell_2[1|7]/a_n144_42#
+ sonos_cell
Xsonos_cell_2[2|5] w_n498_n930# sonos_endcap_lr_2[1]/a_n72_28# dw_0_n64# sonos_cell_2[3|5]/a_n90_n244#
+ sonos_cell_2[3|5]/a_n90_102# sonos_cell_2[2|7]/li_n144_n60# sonos_cell_2[2|7]/a_n144_42#
+ sonos_cell
Xsonos_cell_2[3|5] w_n498_n930# sonos_endcap_lr_2[0]/a_n72_28# dw_0_n64# sonos_cell_2[3|5]/a_n90_n244#
+ sonos_cell_2[3|5]/a_n90_102# sonos_cell_2[3|7]/li_n144_n60# sonos_cell_2[3|7]/a_n144_42#
+ sonos_cell
Xsonos_cell_2[0|6] w_n498_n930# sonos_endcap_lr_2[3]/a_n72_28# dw_0_n64# sonos_cell_2[3|6]/a_n90_n244#
+ sonos_cell_2[3|6]/a_n90_102# sonos_cell_2[0|7]/li_n144_n60# sonos_cell_2[0|7]/a_n144_42#
+ sonos_cell
Xsonos_cell_2[1|6] w_n498_n930# sonos_endcap_lr_2[2]/a_n72_28# dw_0_n64# sonos_cell_2[3|6]/a_n90_n244#
+ sonos_cell_2[3|6]/a_n90_102# sonos_cell_2[1|7]/li_n144_n60# sonos_cell_2[1|7]/a_n144_42#
+ sonos_cell
Xsonos_cell_2[2|6] w_n498_n930# sonos_endcap_lr_2[1]/a_n72_28# dw_0_n64# sonos_cell_2[3|6]/a_n90_n244#
+ sonos_cell_2[3|6]/a_n90_102# sonos_cell_2[2|7]/li_n144_n60# sonos_cell_2[2|7]/a_n144_42#
+ sonos_cell
Xsonos_cell_2[3|6] w_n498_n930# sonos_endcap_lr_2[0]/a_n72_28# dw_0_n64# sonos_cell_2[3|6]/a_n90_n244#
+ sonos_cell_2[3|6]/a_n90_102# sonos_cell_2[3|7]/li_n144_n60# sonos_cell_2[3|7]/a_n144_42#
+ sonos_cell
Xsonos_cell_2[0|7] w_n498_n930# sonos_endcap_lr_2[3]/a_n72_28# dw_0_n64# sonos_cell_2[3|7]/a_n90_n244#
+ sonos_cell_2[3|7]/a_n90_102# sonos_cell_2[0|7]/li_n144_n60# sonos_cell_2[0|7]/a_n144_42#
+ sonos_cell
Xsonos_cell_2[1|7] w_n498_n930# sonos_endcap_lr_2[2]/a_n72_28# dw_0_n64# sonos_cell_2[3|7]/a_n90_n244#
+ sonos_cell_2[3|7]/a_n90_102# sonos_cell_2[1|7]/li_n144_n60# sonos_cell_2[1|7]/a_n144_42#
+ sonos_cell
Xsonos_cell_2[2|7] w_n498_n930# sonos_endcap_lr_2[1]/a_n72_28# dw_0_n64# sonos_cell_2[3|7]/a_n90_n244#
+ sonos_cell_2[3|7]/a_n90_102# sonos_cell_2[2|7]/li_n144_n60# sonos_cell_2[2|7]/a_n144_42#
+ sonos_cell
Xsonos_cell_2[3|7] w_n498_n930# sonos_endcap_lr_2[0]/a_n72_28# dw_0_n64# sonos_cell_2[3|7]/a_n90_n244#
+ sonos_cell_2[3|7]/a_n90_102# sonos_cell_2[3|7]/li_n144_n60# sonos_cell_2[3|7]/a_n144_42#
+ sonos_cell
.ends

.subckt sonos_array_labeled WL2 WL1 WL0 PT7 PT6 PT5 PT4 PT3 PT2 PT1 PT0 VPB WLS7 WLS6
+ BL2 WLS5 BL1 WLS4 BL0 WLS3 WLS2 WLS1 WLS0 VNB SRC2 SRC1 SRC0
Xsonos_array_orig_0 WLS1 WL7 PT3 WLS2 WLS1 WL1 WLS3 WL2 WLS5 WLS7 WLS5 PT1 SRC4 WL5
+ PT0 BL1 WLS4 BL6 WL4 SRC1 PT2 BL0 WLS3 SRC5 PT7 BL3 VNB BL5 WLS0 SRC3 VPB WL3 WLS6
+ SRC7 WLS4 PT4 WLS6 WLS2 BL4 WL0 WLS0 SRC2 BL2 WLS7 PT5 BL7 SRC6 PT6 SRC0 WL6 sonos_array_orig
.ends

.subckt sonos_cell_mirrored sonos_cell_0/a_n144_n130# sonos_cell_0/a_n144_42# w_160_160#
+ sonos_cell_1/a_n144_42# sonos_cell_0/li_n144_n60# sonos_cell_1/a_n90_102# sonos_cell_1/dw_n144_n252#
+ sonos_cell_1/a_n144_n130# sonos_cell_1/a_n90_n244# sonos_cell_1/li_n144_n60#
Xsonos_cell_0 w_160_160# sonos_cell_0/a_n144_n130# sonos_cell_1/dw_n144_n252# sonos_cell_1/a_n90_n244#
+ sonos_cell_1/a_n90_102# sonos_cell_0/li_n144_n60# sonos_cell_0/a_n144_42# sonos_cell
Xsonos_cell_1 w_160_160# sonos_cell_1/a_n144_n130# sonos_cell_1/dw_n144_n252# sonos_cell_1/a_n90_n244#
+ sonos_cell_1/a_n90_102# sonos_cell_1/li_n144_n60# sonos_cell_1/a_n144_42# sonos_cell
.ends

.subckt sonos_8x8 w_n80_n96# dw_n80_n96#
Xsonos_cell_mirrored_0[0|0] w_n80_n96# w_n80_n96# w_n80_n96# w_n80_n96# w_n80_n96#
+ w_n80_n96# dw_n80_n96# w_n80_n96# w_n80_n96# w_n80_n96# sonos_cell_mirrored
Xsonos_cell_mirrored_0[1|0] w_n80_n96# w_n80_n96# w_n80_n96# w_n80_n96# w_n80_n96#
+ w_n80_n96# dw_n80_n96# w_n80_n96# w_n80_n96# w_n80_n96# sonos_cell_mirrored
Xsonos_cell_mirrored_0[2|0] w_n80_n96# w_n80_n96# w_n80_n96# w_n80_n96# w_n80_n96#
+ w_n80_n96# dw_n80_n96# w_n80_n96# w_n80_n96# w_n80_n96# sonos_cell_mirrored
Xsonos_cell_mirrored_0[3|0] w_n80_n96# w_n80_n96# w_n80_n96# w_n80_n96# w_n80_n96#
+ w_n80_n96# dw_n80_n96# w_n80_n96# w_n80_n96# w_n80_n96# sonos_cell_mirrored
Xsonos_cell_mirrored_0[0|1] w_n80_n96# w_n80_n96# w_n80_n96# w_n80_n96# w_n80_n96#
+ w_n80_n96# dw_n80_n96# w_n80_n96# w_n80_n96# w_n80_n96# sonos_cell_mirrored
Xsonos_cell_mirrored_0[1|1] w_n80_n96# w_n80_n96# w_n80_n96# w_n80_n96# w_n80_n96#
+ w_n80_n96# dw_n80_n96# w_n80_n96# w_n80_n96# w_n80_n96# sonos_cell_mirrored
Xsonos_cell_mirrored_0[2|1] w_n80_n96# w_n80_n96# w_n80_n96# w_n80_n96# w_n80_n96#
+ w_n80_n96# dw_n80_n96# w_n80_n96# w_n80_n96# w_n80_n96# sonos_cell_mirrored
Xsonos_cell_mirrored_0[3|1] w_n80_n96# w_n80_n96# w_n80_n96# w_n80_n96# w_n80_n96#
+ w_n80_n96# dw_n80_n96# w_n80_n96# w_n80_n96# w_n80_n96# sonos_cell_mirrored
Xsonos_cell_mirrored_0[0|2] w_n80_n96# w_n80_n96# w_n80_n96# w_n80_n96# w_n80_n96#
+ w_n80_n96# dw_n80_n96# w_n80_n96# w_n80_n96# w_n80_n96# sonos_cell_mirrored
Xsonos_cell_mirrored_0[1|2] w_n80_n96# w_n80_n96# w_n80_n96# w_n80_n96# w_n80_n96#
+ w_n80_n96# dw_n80_n96# w_n80_n96# w_n80_n96# w_n80_n96# sonos_cell_mirrored
Xsonos_cell_mirrored_0[2|2] w_n80_n96# w_n80_n96# w_n80_n96# w_n80_n96# w_n80_n96#
+ w_n80_n96# dw_n80_n96# w_n80_n96# w_n80_n96# w_n80_n96# sonos_cell_mirrored
Xsonos_cell_mirrored_0[3|2] w_n80_n96# w_n80_n96# w_n80_n96# w_n80_n96# w_n80_n96#
+ w_n80_n96# dw_n80_n96# w_n80_n96# w_n80_n96# w_n80_n96# sonos_cell_mirrored
Xsonos_cell_mirrored_0[0|3] w_n80_n96# w_n80_n96# w_n80_n96# w_n80_n96# w_n80_n96#
+ w_n80_n96# dw_n80_n96# w_n80_n96# w_n80_n96# w_n80_n96# sonos_cell_mirrored
Xsonos_cell_mirrored_0[1|3] w_n80_n96# w_n80_n96# w_n80_n96# w_n80_n96# w_n80_n96#
+ w_n80_n96# dw_n80_n96# w_n80_n96# w_n80_n96# w_n80_n96# sonos_cell_mirrored
Xsonos_cell_mirrored_0[2|3] w_n80_n96# w_n80_n96# w_n80_n96# w_n80_n96# w_n80_n96#
+ w_n80_n96# dw_n80_n96# w_n80_n96# w_n80_n96# w_n80_n96# sonos_cell_mirrored
Xsonos_cell_mirrored_0[3|3] w_n80_n96# w_n80_n96# w_n80_n96# w_n80_n96# w_n80_n96#
+ w_n80_n96# dw_n80_n96# w_n80_n96# w_n80_n96# w_n80_n96# sonos_cell_mirrored
Xsonos_cell_mirrored_0[0|4] w_n80_n96# w_n80_n96# w_n80_n96# w_n80_n96# w_n80_n96#
+ w_n80_n96# dw_n80_n96# w_n80_n96# w_n80_n96# w_n80_n96# sonos_cell_mirrored
Xsonos_cell_mirrored_0[1|4] w_n80_n96# w_n80_n96# w_n80_n96# w_n80_n96# w_n80_n96#
+ w_n80_n96# dw_n80_n96# w_n80_n96# w_n80_n96# w_n80_n96# sonos_cell_mirrored
Xsonos_cell_mirrored_0[2|4] w_n80_n96# w_n80_n96# w_n80_n96# w_n80_n96# w_n80_n96#
+ w_n80_n96# dw_n80_n96# w_n80_n96# w_n80_n96# w_n80_n96# sonos_cell_mirrored
Xsonos_cell_mirrored_0[3|4] w_n80_n96# w_n80_n96# w_n80_n96# w_n80_n96# w_n80_n96#
+ w_n80_n96# dw_n80_n96# w_n80_n96# w_n80_n96# w_n80_n96# sonos_cell_mirrored
Xsonos_cell_mirrored_0[0|5] w_n80_n96# w_n80_n96# w_n80_n96# w_n80_n96# w_n80_n96#
+ w_n80_n96# dw_n80_n96# w_n80_n96# w_n80_n96# w_n80_n96# sonos_cell_mirrored
Xsonos_cell_mirrored_0[1|5] w_n80_n96# w_n80_n96# w_n80_n96# w_n80_n96# w_n80_n96#
+ w_n80_n96# dw_n80_n96# w_n80_n96# w_n80_n96# w_n80_n96# sonos_cell_mirrored
Xsonos_cell_mirrored_0[2|5] w_n80_n96# w_n80_n96# w_n80_n96# w_n80_n96# w_n80_n96#
+ w_n80_n96# dw_n80_n96# w_n80_n96# w_n80_n96# w_n80_n96# sonos_cell_mirrored
Xsonos_cell_mirrored_0[3|5] w_n80_n96# w_n80_n96# w_n80_n96# w_n80_n96# w_n80_n96#
+ w_n80_n96# dw_n80_n96# w_n80_n96# w_n80_n96# w_n80_n96# sonos_cell_mirrored
Xsonos_cell_mirrored_0[0|6] w_n80_n96# w_n80_n96# w_n80_n96# w_n80_n96# w_n80_n96#
+ w_n80_n96# dw_n80_n96# w_n80_n96# w_n80_n96# w_n80_n96# sonos_cell_mirrored
Xsonos_cell_mirrored_0[1|6] w_n80_n96# w_n80_n96# w_n80_n96# w_n80_n96# w_n80_n96#
+ w_n80_n96# dw_n80_n96# w_n80_n96# w_n80_n96# w_n80_n96# sonos_cell_mirrored
Xsonos_cell_mirrored_0[2|6] w_n80_n96# w_n80_n96# w_n80_n96# w_n80_n96# w_n80_n96#
+ w_n80_n96# dw_n80_n96# w_n80_n96# w_n80_n96# w_n80_n96# sonos_cell_mirrored
Xsonos_cell_mirrored_0[3|6] w_n80_n96# w_n80_n96# w_n80_n96# w_n80_n96# w_n80_n96#
+ w_n80_n96# dw_n80_n96# w_n80_n96# w_n80_n96# w_n80_n96# sonos_cell_mirrored
Xsonos_cell_mirrored_0[0|7] w_n80_n96# w_n80_n96# w_n80_n96# w_n80_n96# w_n80_n96#
+ w_n80_n96# dw_n80_n96# w_n80_n96# w_n80_n96# w_n80_n96# sonos_cell_mirrored
Xsonos_cell_mirrored_0[1|7] w_n80_n96# w_n80_n96# w_n80_n96# w_n80_n96# w_n80_n96#
+ w_n80_n96# dw_n80_n96# w_n80_n96# w_n80_n96# w_n80_n96# sonos_cell_mirrored
Xsonos_cell_mirrored_0[2|7] w_n80_n96# w_n80_n96# w_n80_n96# w_n80_n96# w_n80_n96#
+ w_n80_n96# dw_n80_n96# w_n80_n96# w_n80_n96# w_n80_n96# sonos_cell_mirrored
Xsonos_cell_mirrored_0[3|7] w_n80_n96# w_n80_n96# w_n80_n96# w_n80_n96# w_n80_n96#
+ w_n80_n96# dw_n80_n96# w_n80_n96# w_n80_n96# w_n80_n96# sonos_cell_mirrored
.ends

.subckt sonos_array_1x1x64 w_n80_n96# dw_n80_n96#
Xsonos_8x8_0 w_n80_n96# dw_n80_n96# sonos_8x8
.ends

.subckt user_analog_project_wrapper gpio_analog[0] gpio_analog[10] gpio_analog[11]
+ gpio_analog[12] gpio_analog[13] gpio_analog[14] gpio_analog[15] gpio_analog[16]
+ gpio_analog[17] gpio_analog[1] gpio_analog[2] gpio_analog[3] gpio_analog[4] gpio_analog[5]
+ gpio_analog[6] gpio_analog[7] gpio_analog[8] gpio_analog[9] gpio_noesd[0] gpio_noesd[10]
+ gpio_noesd[11] gpio_noesd[12] gpio_noesd[13] gpio_noesd[14] gpio_noesd[15] gpio_noesd[16]
+ gpio_noesd[17] gpio_noesd[1] gpio_noesd[2] gpio_noesd[3] gpio_noesd[4] gpio_noesd[5]
+ gpio_noesd[6] gpio_noesd[7] gpio_noesd[8] gpio_noesd[9] io_analog[0] io_analog[10]
+ io_analog[1] io_analog[2] io_analog[3] io_analog[4] io_analog[5] io_analog[6] io_analog[7]
+ io_analog[8] io_analog[9] io_clamp_high[0] io_clamp_high[1] io_clamp_high[2] io_clamp_low[0]
+ io_clamp_low[1] io_clamp_low[2] io_in[0] io_in[10] io_in[11] io_in[12] io_in[13]
+ io_in[14] io_in[15] io_in[16] io_in[17] io_in[18] io_in[19] io_in[1] io_in[20] io_in[21]
+ io_in[22] io_in[23] io_in[24] io_in[25] io_in[26] io_in[2] io_in[3] io_in[4] io_in[5]
+ io_in[6] io_in[7] io_in[8] io_in[9] io_in_3v3[0] io_in_3v3[10] io_in_3v3[11] io_in_3v3[12]
+ io_in_3v3[13] io_in_3v3[14] io_in_3v3[15] io_in_3v3[16] io_in_3v3[17] io_in_3v3[18]
+ io_in_3v3[19] io_in_3v3[1] io_in_3v3[20] io_in_3v3[21] io_in_3v3[22] io_in_3v3[23]
+ io_in_3v3[24] io_in_3v3[25] io_in_3v3[26] io_in_3v3[2] io_in_3v3[3] io_in_3v3[4]
+ io_in_3v3[5] io_in_3v3[6] io_in_3v3[7] io_in_3v3[8] io_in_3v3[9] io_oeb[0] io_oeb[10]
+ io_oeb[11] io_oeb[12] io_oeb[13] io_oeb[14] io_oeb[15] io_oeb[16] io_oeb[17] io_oeb[18]
+ io_oeb[19] io_oeb[1] io_oeb[20] io_oeb[21] io_oeb[22] io_oeb[23] io_oeb[24] io_oeb[25]
+ io_oeb[26] io_oeb[2] io_oeb[3] io_oeb[4] io_oeb[5] io_oeb[6] io_oeb[7] io_oeb[8]
+ io_oeb[9] io_out[0] io_out[10] io_out[11] io_out[12] io_out[13] io_out[14] io_out[15]
+ io_out[16] io_out[17] io_out[18] io_out[19] io_out[1] io_out[20] io_out[21] io_out[22]
+ io_out[23] io_out[24] io_out[25] io_out[26] io_out[2] io_out[3] io_out[4] io_out[5]
+ io_out[6] io_out[7] io_out[8] io_out[9] la_data_in[0] la_data_in[100] la_data_in[101]
+ la_data_in[102] la_data_in[103] la_data_in[104] la_data_in[105] la_data_in[106]
+ la_data_in[107] la_data_in[108] la_data_in[109] la_data_in[10] la_data_in[110] la_data_in[111]
+ la_data_in[112] la_data_in[113] la_data_in[114] la_data_in[115] la_data_in[116]
+ la_data_in[117] la_data_in[118] la_data_in[119] la_data_in[11] la_data_in[120] la_data_in[121]
+ la_data_in[122] la_data_in[123] la_data_in[124] la_data_in[125] la_data_in[126]
+ la_data_in[127] la_data_in[12] la_data_in[13] la_data_in[14] la_data_in[15] la_data_in[16]
+ la_data_in[17] la_data_in[18] la_data_in[19] la_data_in[1] la_data_in[20] la_data_in[21]
+ la_data_in[22] la_data_in[23] la_data_in[24] la_data_in[25] la_data_in[26] la_data_in[27]
+ la_data_in[28] la_data_in[29] la_data_in[2] la_data_in[30] la_data_in[31] la_data_in[32]
+ la_data_in[33] la_data_in[34] la_data_in[35] la_data_in[36] la_data_in[37] la_data_in[38]
+ la_data_in[39] la_data_in[3] la_data_in[40] la_data_in[41] la_data_in[42] la_data_in[43]
+ la_data_in[44] la_data_in[45] la_data_in[46] la_data_in[47] la_data_in[48] la_data_in[49]
+ la_data_in[4] la_data_in[50] la_data_in[51] la_data_in[52] la_data_in[53] la_data_in[54]
+ la_data_in[55] la_data_in[56] la_data_in[57] la_data_in[58] la_data_in[59] la_data_in[5]
+ la_data_in[60] la_data_in[61] la_data_in[62] la_data_in[63] la_data_in[64] la_data_in[65]
+ la_data_in[66] la_data_in[67] la_data_in[68] la_data_in[69] la_data_in[6] la_data_in[70]
+ la_data_in[71] la_data_in[72] la_data_in[73] la_data_in[74] la_data_in[75] la_data_in[76]
+ la_data_in[77] la_data_in[78] la_data_in[79] la_data_in[7] la_data_in[80] la_data_in[81]
+ la_data_in[82] la_data_in[83] la_data_in[84] la_data_in[85] la_data_in[86] la_data_in[87]
+ la_data_in[88] la_data_in[89] la_data_in[8] la_data_in[90] la_data_in[91] la_data_in[92]
+ la_data_in[93] la_data_in[94] la_data_in[95] la_data_in[96] la_data_in[97] la_data_in[98]
+ la_data_in[99] la_data_in[9] la_data_out[0] la_data_out[100] la_data_out[101] la_data_out[102]
+ la_data_out[103] la_data_out[104] la_data_out[105] la_data_out[106] la_data_out[107]
+ la_data_out[108] la_data_out[109] la_data_out[10] la_data_out[110] la_data_out[111]
+ la_data_out[112] la_data_out[113] la_data_out[114] la_data_out[115] la_data_out[116]
+ la_data_out[117] la_data_out[118] la_data_out[119] la_data_out[11] la_data_out[120]
+ la_data_out[121] la_data_out[122] la_data_out[123] la_data_out[124] la_data_out[125]
+ la_data_out[126] la_data_out[127] la_data_out[12] la_data_out[13] la_data_out[14]
+ la_data_out[15] la_data_out[16] la_data_out[17] la_data_out[18] la_data_out[19]
+ la_data_out[1] la_data_out[20] la_data_out[21] la_data_out[22] la_data_out[23] la_data_out[24]
+ la_data_out[25] la_data_out[26] la_data_out[27] la_data_out[28] la_data_out[29]
+ la_data_out[2] la_data_out[30] la_data_out[31] la_data_out[32] la_data_out[33] la_data_out[34]
+ la_data_out[35] la_data_out[36] la_data_out[37] la_data_out[38] la_data_out[39]