** sch_path: /opt/z2a/sky130_sonos_array/xschem/user_analog_project_wrapper.sch
.subckt user_analog_project_wrapper vdda1 vdda2 vssa1 vssa2 vccd1 vccd2 vssd1 vssd2 wb_clk_i
+ wb_rst_i wbs_stb_i wbs_cyc_i wbs_we_i wbs_sel_i[3] wbs_sel_i[2] wbs_sel_i[1] wbs_sel_i[0] wbs_dat_i[31]
+ wbs_dat_i[30] wbs_dat_i[29] wbs_dat_i[28] wbs_dat_i[27] wbs_dat_i[26] wbs_dat_i[25] wbs_dat_i[24] wbs_dat_i[23]
+ wbs_dat_i[22] wbs_dat_i[21] wbs_dat_i[20] wbs_dat_i[19] wbs_dat_i[18] wbs_dat_i[17] wbs_dat_i[16] wbs_dat_i[15]
+ wbs_dat_i[14] wbs_dat_i[13] wbs_dat_i[12] wbs_dat_i[11] wbs_dat_i[10] wbs_dat_i[9] wbs_dat_i[8] wbs_dat_i[7]
+ wbs_dat_i[6] wbs_dat_i[5] wbs_dat_i[4] wbs_dat_i[3] wbs_dat_i[2] wbs_dat_i[1] wbs_dat_i[0] wbs_adr_i[31]
+ wbs_adr_i[30] wbs_adr_i[29] wbs_adr_i[28] wbs_adr_i[27] wbs_adr_i[26] wbs_adr_i[25] wbs_adr_i[24] wbs_adr_i[23]
+ wbs_adr_i[22] wbs_adr_i[21] wbs_adr_i[20] wbs_adr_i[19] wbs_adr_i[18] wbs_adr_i[17] wbs_adr_i[16] wbs_adr_i[15]
+ wbs_adr_i[14] wbs_adr_i[13] wbs_adr_i[12] wbs_adr_i[11] wbs_adr_i[10] wbs_adr_i[9] wbs_adr_i[8] wbs_adr_i[7]
+ wbs_adr_i[6] wbs_adr_i[5] wbs_adr_i[4] wbs_adr_i[3] wbs_adr_i[2] wbs_adr_i[1] wbs_adr_i[0] wbs_ack_o
+ wbs_dat_o[31] wbs_dat_o[30] wbs_dat_o[29] wbs_dat_o[28] wbs_dat_o[27] wbs_dat_o[26] wbs_dat_o[25] wbs_dat_o[24]
+ wbs_dat_o[23] wbs_dat_o[22] wbs_dat_o[21] wbs_dat_o[20] wbs_dat_o[19] wbs_dat_o[18] wbs_dat_o[17] wbs_dat_o[16]
+ wbs_dat_o[15] wbs_dat_o[14] wbs_dat_o[13] wbs_dat_o[12] wbs_dat_o[11] wbs_dat_o[10] wbs_dat_o[9] wbs_dat_o[8]
+ wbs_dat_o[7] wbs_dat_o[6] wbs_dat_o[5] wbs_dat_o[4] wbs_dat_o[3] wbs_dat_o[2] wbs_dat_o[1] wbs_dat_o[0]
+ la_data_in[127] la_data_in[126] la_data_in[125] la_data_in[124] la_data_in[123] la_data_in[122] la_data_in[121]
+ la_data_in[120] la_data_in[119] la_data_in[118] la_data_in[117] la_data_in[116] la_data_in[115] la_data_in[114]
+ la_data_in[113] la_data_in[112] la_data_in[111] la_data_in[110] la_data_in[109] la_data_in[108] la_data_in[107]
+ la_data_in[106] la_data_in[105] la_data_in[104] la_data_in[103] la_data_in[102] la_data_in[101] la_data_in[100]
+ la_data_in[99] la_data_in[98] la_data_in[97] la_data_in[96] la_data_in[95] la_data_in[94] la_data_in[93]
+ la_data_in[92] la_data_in[91] la_data_in[90] la_data_in[89] la_data_in[88] la_data_in[87] la_data_in[86]
+ la_data_in[85] la_data_in[84] la_data_in[83] la_data_in[82] la_data_in[81] la_data_in[80] la_data_in[79]
+ la_data_in[78] la_data_in[77] la_data_in[76] la_data_in[75] la_data_in[74] la_data_in[73] la_data_in[72]
+ la_data_in[71] la_data_in[70] la_data_in[69] la_data_in[68] la_data_in[67] la_data_in[66] la_data_in[65]
+ la_data_in[64] la_data_in[63] la_data_in[62] la_data_in[61] la_data_in[60] la_data_in[59] la_data_in[58]
+ la_data_in[57] la_data_in[56] la_data_in[55] la_data_in[54] la_data_in[53] la_data_in[52] la_data_in[51]
+ la_data_in[50] la_data_in[49] la_data_in[48] la_data_in[47] la_data_in[46] la_data_in[45] la_data_in[44]
+ la_data_in[43] la_data_in[42] la_data_in[41] la_data_in[40] la_data_in[39] la_data_in[38] la_data_in[37]
+ la_data_in[36] la_data_in[35] la_data_in[34] la_data_in[33] la_data_in[32] la_data_in[31] la_data_in[30]
+ la_data_in[29] la_data_in[28] la_data_in[27] la_data_in[26] la_data_in[25] la_data_in[24] la_data_in[23]
+ la_data_in[22] la_data_in[21] la_data_in[20] la_data_in[19] la_data_in[18] la_data_in[17] la_data_in[16]
+ la_data_in[15] la_data_in[14] la_data_in[13] la_data_in[12] la_data_in[11] la_data_in[10] la_data_in[9]
+ la_data_in[8] la_data_in[7] la_data_in[6] la_data_in[5] la_data_in[4] la_data_in[3] la_data_in[2] la_data_in[1]
+ la_data_in[0] la_data_out[127] la_data_out[126] la_data_out[125] la_data_out[124] la_data_out[123]
+ la_data_out[122] la_data_out[121] la_data_out[120] la_data_out[119] la_data_out[118] la_data_out[117]
+ la_data_out[116] la_data_out[115] la_data_out[114] la_data_out[113] la_data_out[112] la_data_out[111]
+ la_data_out[110] la_data_out[109] la_data_out[108] la_data_out[107] la_data_out[106] la_data_out[105]
+ la_data_out[104] la_data_out[103] la_data_out[102] la_data_out[101] la_data_out[100] la_data_out[99] la_data_out[98]
+ la_data_out[97] la_data_out[96] la_data_out[95] la_data_out[94] la_data_out[93] la_data_out[92] la_data_out[91]
+ la_data_out[90] la_data_out[89] la_data_out[88] la_data_out[87] la_data_out[86] la_data_out[85] la_data_out[84]
+ la_data_out[83] la_data_out[82] la_data_out[81] la_data_out[80] la_data_out[79] la_data_out[78] la_data_out[77]
+ la_data_out[76] la_data_out[75] la_data_out[74] la_data_out[73] la_data_out[72] la_data_out[71] la_data_out[70]
+ la_data_out[69] la_data_out[68] la_data_out[67] la_data_out[66] la_data_out[65] la_data_out[64] la_data_out[63]
+ la_data_out[62] la_data_out[61] la_data_out[60] la_data_out[59] la_data_out[58] la_data_out[57] la_data_out[56]
+ la_data_out[55] la_data_out[54] la_data_out[53] la_data_out[52] la_data_out[51] la_data_out[50] la_data_out[49]
+ la_data_out[48] la_data_out[47] la_data_out[46] la_data_out[45] la_data_out[44] la_data_out[43] la_data_out[42]
+ la_data_out[41] la_data_out[40] la_data_out[39] la_data_out[38] la_data_out[37] la_data_out[36] la_data_out[35]
+ la_data_out[34] la_data_out[33] la_data_out[32] la_data_out[31] la_data_out[30] la_data_out[29] la_data_out[28]
+ la_data_out[27] la_data_out[26] la_data_out[25] la_data_out[24] la_data_out[23] la_data_out[22] la_data_out[21]
+ la_data_out[20] la_data_out[19] la_data_out[18] la_data_out[17] la_data_out[16] la_data_out[15] la_data_out[14]
+ la_data_out[13] la_data_out[12] la_data_out[11] la_data_out[10] la_data_out[9] la_data_out[8] la_data_out[7]
+ la_data_out[6] la_data_out[5] la_data_out[4] la_data_out[3] la_data_out[2] la_data_out[1] la_data_out[0] io_in[26]
+ io_in[25] io_in[24] io_in[23] io_in[22] io_in[21] io_in[20] io_in[19] io_in[18] io_in[17] io_in[16] io_in[15]
+ io_in[14] io_in[13] io_in[12] io_in[11] io_in[10] io_in[9] io_in[8] io_in[7] io_in[6] io_in[5] io_in[4]
+ io_in[3] io_in[2] io_in[1] io_in[0] io_in_3v3[26] io_in_3v3[25] io_in_3v3[24] io_in_3v3[23] io_in_3v3[22]
+ io_in_3v3[21] io_in_3v3[20] io_in_3v3[19] io_in_3v3[18] io_in_3v3[17] io_in_3v3[16] io_in_3v3[15] io_in_3v3[14]
+ io_in_3v3[13] io_in_3v3[12] io_in_3v3[11] io_in_3v3[10] io_in_3v3[9] io_in_3v3[8] io_in_3v3[7] io_in_3v3[6]
+ io_in_3v3[5] io_in_3v3[4] io_in_3v3[3] io_in_3v3[2] io_in_3v3[1] io_in_3v3[0] user_clock2 io_out[26] io_out[25]
+ io_out[24] io_out[23] io_out[22] io_out[21] io_out[20] io_out[19] io_out[18] io_out[17] io_out[16] io_out[15]
+ io_out[14] io_out[13] io_out[12] io_out[11] io_out[10] io_out[9] io_out[8] io_out[7] io_out[6] io_out[5]
+ io_out[4] io_out[3] io_out[2] io_out[1] io_out[0] io_oeb[26] io_oeb[25] io_oeb[24] io_oeb[23] io_oeb[22]
+ io_oeb[21] io_oeb[20] io_oeb[19] io_oeb[18] io_oeb[17] io_oeb[16] io_oeb[15] io_oeb[14] io_oeb[13] io_oeb[12]
+ io_oeb[11] io_oeb[10] io_oeb[9] io_oeb[8] io_oeb[7] io_oeb[6] io_oeb[5] io_oeb[4] io_oeb[3] io_oeb[2]
+ io_oeb[1] io_oeb[0] gpio_analog[17] gpio_analog[16] gpio_analog[15] gpio_analog[14] gpio_analog[13]
+ gpio_analog[12] gpio_analog[11] gpio_analog[10] gpio_analog[9] gpio_analog[8] gpio_analog[7] gpio_analog[6]
+ gpio_analog[5] gpio_analog[4] gpio_analog[3] gpio_analog[2] gpio_analog[1] gpio_analog[0] gpio_noesd[17]
+ gpio_noesd[16] gpio_noesd[15] gpio_noesd[14] gpio_noesd[13] gpio_noesd[12] gpio_noesd[11] gpio_noesd[10]
+ gpio_noesd[9] gpio_noesd[8] gpio_noesd[7] gpio_noesd[6] gpio_noesd[5] gpio_noesd[4] gpio_noesd[3] gpio_noesd[2]
+ gpio_noesd[1] gpio_noesd[0] io_analog[10] io_analog[9] io_analog[8] io_analog[7] io_analog[6] io_analog[5]
+ io_analog[4] io_analog[3] io_analog[2] io_analog[1] io_analog[0] io_clamp_high[2] io_clamp_high[1]
+ io_clamp_high[0] io_clamp_low[2] io_clamp_low[1] io_clamp_low[0] user_irq[2] user_irq[1] user_irq[0] la_oenb[127]
+ la_oenb[126] la_oenb[125] la_oenb[124] la_oenb[123] la_oenb[122] la_oenb[121] la_oenb[120] la_oenb[119]
+ la_oenb[118] la_oenb[117] la_oenb[116] la_oenb[115] la_oenb[114] la_oenb[113] la_oenb[112] la_oenb[111]
+ la_oenb[110] la_oenb[109] la_oenb[108] la_oenb[107] la_oenb[106] la_oenb[105] la_oenb[104] la_oenb[103]
+ la_oenb[102] la_oenb[101] la_oenb[100] la_oenb[99] la_oenb[98] la_oenb[97] la_oenb[96] la_oenb[95] la_oenb[94]
+ la_oenb[93] la_oenb[92] la_oenb[91] la_oenb[90] la_oenb[89] la_oenb[88] la_oenb[87] la_oenb[86] la_oenb[85]
+ la_oenb[84] la_oenb[83] la_oenb[82] la_oenb[81] la_oenb[80] la_oenb[79] la_oenb[78] la_oenb[77] la_oenb[76]
+ la_oenb[75] la_oenb[74] la_oenb[73] la_oenb[72] la_oenb[71] la_oenb[70] la_oenb[69] la_oenb[68] la_oenb[67]
+ la_oenb[66] la_oenb[65] la_oenb[64] la_oenb[63] la_oenb[62] la_oenb[61] la_oenb[60] la_oenb[59] la_oenb[58]
+ la_oenb[57] la_oenb[56] la_oenb[55] la_oenb[54] la_oenb[53] la_oenb[52] la_oenb[51] la_oenb[50] la_oenb[49]
+ la_oenb[48] la_oenb[47] la_oenb[46] la_oenb[45] la_oenb[44] la_oenb[43] la_oenb[42] la_oenb[41] la_oenb[40]
+ la_oenb[39] la_oenb[38] la_oenb[37] la_oenb[36] la_oenb[35] la_oenb[34] la_oenb[33] la_oenb[32] la_oenb[31]
+ la_oenb[30] la_oenb[29] la_oenb[28] la_oenb[27] la_oenb[26] la_oenb[25] la_oenb[24] la_oenb[23] la_oenb[22]
+ la_oenb[21] la_oenb[20] la_oenb[19] la_oenb[18] la_oenb[17] la_oenb[16] la_oenb[15] la_oenb[14] la_oenb[13]
+ la_oenb[12] la_oenb[11] la_oenb[10] la_oenb[9] la_oenb[8] la_oenb[7] la_oenb[6] la_oenb[5] la_oenb[4]
+ la_oenb[3] la_oenb[2] la_oenb[1] la_oenb[0]
*.PININFO vdda1:B vdda2:B vssa1:B vssa2:B vccd1:B vccd2:B vssd1:B vssd2:B wb_clk_i:I wb_rst_i:I
*+ wbs_stb_i:I wbs_cyc_i:I wbs_we_i:I wbs_sel_i[3:0]:I wbs_dat_i[31:0]:I wbs_adr_i[31:0]:I wbs_ack_o:O
*+ wbs_dat_o[31:0]:O la_data_in[127:0]:I la_data_out[127:0]:O io_in[26:0]:I io_in_3v3[26:0]:I user_clock2:I
*+ io_out[26:0]:O io_oeb[26:0]:O gpio_analog[17:0]:B gpio_noesd[17:0]:B io_analog[10:0]:B io_clamp_high[2:0]:B
*+ io_clamp_low[2:0]:B user_irq[2:0]:O la_oenb[127:0]:I
XM1 io_analog[0] io_analog[1] io_analog[2] io_analog[3] sky130_fd_bs__special_sonosfet_star L=0.22
+ W=0.45 m=1
XM2 io_analog[4] io_analog[5] io_analog[6] io_analog[7] sky130_fd_bs__special_sonosfet_star L=0.22
+ W=0.45 m=1
XM3 io_analog[8] io_analog[9] io_analog[10] vssa1 sky130_fd_bs__special_sonosfet_star L=0.22 W=0.45
+ m=1
x1[59999] vssa2 vssa2 vssa2 sonos_array_tied
x1[59998] vssa2 vssa2 vssa2 sonos_array_tied
x1[59997] vssa2 vssa2 vssa2 sonos_array_tied
x1[59996] vssa2 vssa2 vssa2 sonos_array_tied
x1[59995] vssa2 vssa2 vssa2 sonos_array_tied
x1[59994] vssa2 vssa2 vssa2 sonos_array_tied
x1[59993] vssa2 vssa2 vssa2 sonos_array_tied
x1[59992] vssa2 vssa2 vssa2 sonos_array_tied
x1[59991] vssa2 vssa2 vssa2 sonos_array_tied
x1[59990] vssa2 vssa2 vssa2 sonos_array_tied
x1[59989] vssa2 vssa2 vssa2 sonos_array_tied
x1[59988] vssa2 vssa2 vssa2 sonos_array_tied
x1[59987] vssa2 vssa2 vssa2 sonos_array_tied
x1[59986] vssa2 vssa2 vssa2 sonos_array_tied
x1[59985] vssa2 vssa2 vssa2 sonos_array_tied
x1[59984] vssa2 vssa2 vssa2 sonos_array_tied
x1[59983] vssa2 vssa2 vssa2 sonos_array_tied
x1[59982] vssa2 vssa2 vssa2 sonos_array_tied
x1[59981] vssa2 vssa2 vssa2 sonos_array_tied
x1[59980] vssa2 vssa2 vssa2 sonos_array_tied
x1[59979] vssa2 vssa2 vssa2 sonos_array_tied
x1[59978] vssa2 vssa2 vssa2 sonos_array_tied
x1[59977] vssa2 vssa2 vssa2 sonos_array_tied
x1[59976] vssa2 vssa2 vssa2 sonos_array_tied
x1[59975] vssa2 vssa2 vssa2 sonos_array_tied
x1[59974] vssa2 vssa2 vssa2 sonos_array_tied
x1[59973] vssa2 vssa2 vssa2 sonos_array_tied
x1[59972] vssa2 vssa2 vssa2 sonos_array_tied
x1[59971] vssa2 vssa2 vssa2 sonos_array_tied
x1[59970] vssa2 vssa2 vssa2 sonos_array_tied
x1[59969] vssa2 vssa2 vssa2 sonos_array_tied
x1[59968] vssa2 vssa2 vssa2 sonos_array_tied
x1[59967] vssa2 vssa2 vssa2 sonos_array_tied
x1[59966] vssa2 vssa2 vssa2 sonos_array_tied
x1[59965] vssa2 vssa2 vssa2 sonos_array_tied
x1[59964] vssa2 vssa2 vssa2 sonos_array_tied
x1[59963] vssa2 vssa2 vssa2 sonos_array_tied
x1[59962] vssa2 vssa2 vssa2 sonos_array_tied
x1[59961] vssa2 vssa2 vssa2 sonos_array_tied
x1[59960] vssa2 vssa2 vssa2 sonos_array_tied
x1[59959] vssa2 vssa2 vssa2 sonos_array_tied
x1[59958] vssa2 vssa2 vssa2 sonos_array_tied
x1[59957] vssa2 vssa2 vssa2 sonos_array_tied
x1[59956] vssa2 vssa2 vssa2 sonos_array_tied
x1[59955] vssa2 vssa2 vssa2 sonos_array_tied
x1[59954] vssa2 vssa2 vssa2 sonos_array_tied
x1[59953] vssa2 vssa2 vssa2 sonos_array_tied
x1[59952] vssa2 vssa2 vssa2 sonos_array_tied
x1[59951] vssa2 vssa2 vssa2 sonos_array_tied
x1[59950] vssa2 vssa2 vssa2 sonos_array_tied
x1[59949] vssa2 vssa2 vssa2 sonos_array_tied
x1[59948] vssa2 vssa2 vssa2 sonos_array_tied
x1[59947] vssa2 vssa2 vssa2 sonos_array_tied
x1[59946] vssa2 vssa2 vssa2 sonos_array_tied
x1[59945] vssa2 vssa2 vssa2 sonos_array_tied
x1[59944] vssa2 vssa2 vssa2 sonos_array_tied
x1[59943] vssa2 vssa2 vssa2 sonos_array_tied
x1[59942] vssa2 vssa2 vssa2 sonos_array_tied
x1[59941] vssa2 vssa2 vssa2 sonos_array_tied
x1[59940] vssa2 vssa2 vssa2 sonos_array_tied
x1[59939] vssa2 vssa2 vssa2 sonos_array_tied
x1[59938] vssa2 vssa2 vssa2 sonos_array_tied
x1[59937] vssa2 vssa2 vssa2 sonos_array_tied
x1[59936] vssa2 vssa2 vssa2 sonos_array_tied
x1[59935] vssa2 vssa2 vssa2 sonos_array_tied
x1[59934] vssa2 vssa2 vssa2 sonos_array_tied
x1[59933] vssa2 vssa2 vssa2 sonos_array_tied
x1[59932] vssa2 vssa2 vssa2 sonos_array_tied
x1[59931] vssa2 vssa2 vssa2 sonos_array_tied
x1[59930] vssa2 vssa2 vssa2 sonos_array_tied
x1[59929] vssa2 vssa2 vssa2 sonos_array_tied
x1[59928] vssa2 vssa2 vssa2 sonos_array_tied
x1[59927] vssa2 vssa2 vssa2 sonos_array_tied
x1[59926] vssa2 vssa2 vssa2 sonos_array_tied
x1[59925] vssa2 vssa2 vssa2 sonos_array_tied
x1[59924] vssa2 vssa2 vssa2 sonos_array_tied
x1[59923] vssa2 vssa2 vssa2 sonos_array_tied
x1[59922] vssa2 vssa2 vssa2 sonos_array_tied
x1[59921] vssa2 vssa2 vssa2 sonos_array_tied
x1[59920] vssa2 vssa2 vssa2 sonos_array_tied
x1[59919] vssa2 vssa2 vssa2 sonos_array_tied
x1[59918] vssa2 vssa2 vssa2 sonos_array_tied
x1[59917] vssa2 vssa2 vssa2 sonos_array_tied
x1[59916] vssa2 vssa2 vssa2 sonos_array_tied
x1[59915] vssa2 vssa2 vssa2 sonos_array_tied
x1[59914] vssa2 vssa2 vssa2 sonos_array_tied
x1[59913] vssa2 vssa2 vssa2 sonos_array_tied
x1[59912] vssa2 vssa2 vssa2 sonos_array_tied
x1[59911] vssa2 vssa2 vssa2 sonos_array_tied
x1[59910] vssa2 vssa2 vssa2 sonos_array_tied
x1[59909] vssa2 vssa2 vssa2 sonos_array_tied
x1[59908] vssa2 vssa2 vssa2 sonos_array_tied
x1[59907] vssa2 vssa2 vssa2 sonos_array_tied
x1[59906] vssa2 vssa2 vssa2 sonos_array_tied
x1[59905] vssa2 vssa2 vssa2 sonos_array_tied
x1[59904] vssa2 vssa2 vssa2 sonos_array_tied
x1[59903] vssa2 vssa2 vssa2 sonos_array_tied
x1[59902] vssa2 vssa2 vssa2 sonos_array_tied
x1[59901] vssa2 vssa2 vssa2 sonos_array_tied
x1[59900] vssa2 vssa2 vssa2 sonos_array_tied
x1[59899] vssa2 vssa2 vssa2 sonos_array_tied
x1[59898] vssa2 vssa2 vssa2 sonos_array_tied
x1[59897] vssa2 vssa2 vssa2 sonos_array_tied
x1[59896] vssa2 vssa2 vssa2 sonos_array_tied
x1[59895] vssa2 vssa2 vssa2 sonos_array_tied
x1[59894] vssa2 vssa2 vssa2 sonos_array_tied
x1[59893] vssa2 vssa2 vssa2 sonos_array_tied
x1[59892] vssa2 vssa2 vssa2 sonos_array_tied
x1[59891] vssa2 vssa2 vssa2 sonos_array_tied
x1[59890] vssa2 vssa2 vssa2 sonos_array_tied
x1[59889] vssa2 vssa2 vssa2 sonos_array_tied
x1[59888] vssa2 vssa2 vssa2 sonos_array_tied
x1[59887] vssa2 vssa2 vssa2 sonos_array_tied
x1[59886] vssa2 vssa2 vssa2 sonos_array_tied
x1[59885] vssa2 vssa2 vssa2 sonos_array_tied
x1[59884] vssa2 vssa2 vssa2 sonos_array_tied
x1[59883] vssa2 vssa2 vssa2 sonos_array_tied
x1[59882] vssa2 vssa2 vssa2 sonos_array_tied
x1[59881] vssa2 vssa2 vssa2 sonos_array_tied
x1[59880] vssa2 vssa2 vssa2 sonos_array_tied
x1[59879] vssa2 vssa2 vssa2 sonos_array_tied
x1[59878] vssa2 vssa2 vssa2 sonos_array_tied
x1[59877] vssa2 vssa2 vssa2 sonos_array_tied
x1[59876] vssa2 vssa2 vssa2 sonos_array_tied
x1[59875] vssa2 vssa2 vssa2 sonos_array_tied
x1[59874] vssa2 vssa2 vssa2 sonos_array_tied
x1[59873] vssa2 vssa2 vssa2 sonos_array_tied
x1[59872] vssa2 vssa2 vssa2 sonos_array_tied
x1[59871] vssa2 vssa2 vssa2 sonos_array_tied
x1[59870] vssa2 vssa2 vssa2 sonos_array_tied
x1[59869] vssa2 vssa2 vssa2 sonos_array_tied
x1[59868] vssa2 vssa2 vssa2 sonos_array_tied
x1[59867] vssa2 vssa2 vssa2 sonos_array_tied
x1[59866] vssa2 vssa2 vssa2 sonos_array_tied
x1[59865] vssa2 vssa2 vssa2 sonos_array_tied
x1[59864] vssa2 vssa2 vssa2 sonos_array_tied
x1[59863] vssa2 vssa2 vssa2 sonos_array_tied
x1[59862] vssa2 vssa2 vssa2 sonos_array_tied
x1[59861] vssa2 vssa2 vssa2 sonos_array_tied
x1[59860] vssa2 vssa2 vssa2 sonos_array_tied
x1[59859] vssa2 vssa2 vssa2 sonos_array_tied
x1[59858] vssa2 vssa2 vssa2 sonos_array_tied
x1[59857] vssa2 vssa2 vssa2 sonos_array_tied
x1[59856] vssa2 vssa2 vssa2 sonos_array_tied
x1[59855] vssa2 vssa2 vssa2 sonos_array_tied
x1[59854] vssa2 vssa2 vssa2 sonos_array_tied
x1[59853] vssa2 vssa2 vssa2 sonos_array_tied
x1[59852] vssa2 vssa2 vssa2 sonos_array_tied
x1[59851] vssa2 vssa2 vssa2 sonos_array_tied
x1[59850] vssa2 vssa2 vssa2 sonos_array_tied
x1[59849] vssa2 vssa2 vssa2 sonos_array_tied
x1[59848] vssa2 vssa2 vssa2 sonos_array_tied
x1[59847] vssa2 vssa2 vssa2 sonos_array_tied
x1[59846] vssa2 vssa2 vssa2 sonos_array_tied
x1[59845] vssa2 vssa2 vssa2 sonos_array_tied
x1[59844] vssa2 vssa2 vssa2 sonos_array_tied
x1[59843] vssa2 vssa2 vssa2 sonos_array_tied
x1[59842] vssa2 vssa2 vssa2 sonos_array_tied
x1[59841] vssa2 vssa2 vssa2 sonos_array_tied
x1[59840] vssa2 vssa2 vssa2 sonos_array_tied
x1[59839] vssa2 vssa2 vssa2 sonos_array_tied
x1[59838] vssa2 vssa2 vssa2 sonos_array_tied
x1[59837] vssa2 vssa2 vssa2 sonos_array_tied
x1[59836] vssa2 vssa2 vssa2 sonos_array_tied
x1[59835] vssa2 vssa2 vssa2 sonos_array_tied
x1[59834] vssa2 vssa2 vssa2 sonos_array_tied
x1[59833] vssa2 vssa2 vssa2 sonos_array_tied
x1[59832] vssa2 vssa2 vssa2 sonos_array_tied
x1[59831] vssa2 vssa2 vssa2 sonos_array_tied
x1[59830] vssa2 vssa2 vssa2 sonos_array_tied
x1[59829] vssa2 vssa2 vssa2 sonos_array_tied
x1[59828] vssa2 vssa2 vssa2 sonos_array_tied
x1[59827] vssa2 vssa2 vssa2 sonos_array_tied
x1[59826] vssa2 vssa2 vssa2 sonos_array_tied
x1[59825] vssa2 vssa2 vssa2 sonos_array_tied
x1[59824] vssa2 vssa2 vssa2 sonos_array_tied
x1[59823] vssa2 vssa2 vssa2 sonos_array_tied
x1[59822] vssa2 vssa2 vssa2 sonos_array_tied
x1[59821] vssa2 vssa2 vssa2 sonos_array_tied
x1[59820] vssa2 vssa2 vssa2 sonos_array_tied
x1[59819] vssa2 vssa2 vssa2 sonos_array_tied
x1[59818] vssa2 vssa2 vssa2 sonos_array_tied
x1[59817] vssa2 vssa2 vssa2 sonos_array_tied
x1[59816] vssa2 vssa2 vssa2 sonos_array_tied
x1[59815] vssa2 vssa2 vssa2 sonos_array_tied
x1[59814] vssa2 vssa2 vssa2 sonos_array_tied
x1[59813] vssa2 vssa2 vssa2 sonos_array_tied
x1[59812] vssa2 vssa2 vssa2 sonos_array_tied
x1[59811] vssa2 vssa2 vssa2 sonos_array_tied
x1[59810] vssa2 vssa2 vssa2 sonos_array_tied
x1[59809] vssa2 vssa2 vssa2 sonos_array_tied
x1[59808] vssa2 vssa2 vssa2 sonos_array_tied
x1[59807] vssa2 vssa2 vssa2 sonos_array_tied
x1[59806] vssa2 vssa2 vssa2 sonos_array_tied
x1[59805] vssa2 vssa2 vssa2 sonos_array_tied
x1[59804] vssa2 vssa2 vssa2 sonos_array_tied
x1[59803] vssa2 vssa2 vssa2 sonos_array_tied
x1[59802] vssa2 vssa2 vssa2 sonos_array_tied
x1[59801] vssa2 vssa2 vssa2 sonos_array_tied
x1[59800] vssa2 vssa2 vssa2 sonos_array_tied
x1[59799] vssa2 vssa2 vssa2 sonos_array_tied
x1[59798] vssa2 vssa2 vssa2 sonos_array_tied
x1[59797] vssa2 vssa2 vssa2 sonos_array_tied
x1[59796] vssa2 vssa2 vssa2 sonos_array_tied
x1[59795] vssa2 vssa2 vssa2 sonos_array_tied
x1[59794] vssa2 vssa2 vssa2 sonos_array_tied
x1[59793] vssa2 vssa2 vssa2 sonos_array_tied
x1[59792] vssa2 vssa2 vssa2 sonos_array_tied
x1[59791] vssa2 vssa2 vssa2 sonos_array_tied
x1[59790] vssa2 vssa2 vssa2 sonos_array_tied
x1[59789] vssa2 vssa2 vssa2 sonos_array_tied
x1[59788] vssa2 vssa2 vssa2 sonos_array_tied
x1[59787] vssa2 vssa2 vssa2 sonos_array_tied
x1[59786] vssa2 vssa2 vssa2 sonos_array_tied
x1[59785] vssa2 vssa2 vssa2 sonos_array_tied
x1[59784] vssa2 vssa2 vssa2 sonos_array_tied
x1[59783] vssa2 vssa2 vssa2 sonos_array_tied
x1[59782] vssa2 vssa2 vssa2 sonos_array_tied
x1[59781] vssa2 vssa2 vssa2 sonos_array_tied
x1[59780] vssa2 vssa2 vssa2 sonos_array_tied
x1[59779] vssa2 vssa2 vssa2 sonos_array_tied
x1[59778] vssa2 vssa2 vssa2 sonos_array_tied
x1[59777] vssa2 vssa2 vssa2 sonos_array_tied
x1[59776] vssa2 vssa2 vssa2 sonos_array_tied
x1[59775] vssa2 vssa2 vssa2 sonos_array_tied
x1[59774] vssa2 vssa2 vssa2 sonos_array_tied
x1[59773] vssa2 vssa2 vssa2 sonos_array_tied
x1[59772] vssa2 vssa2 vssa2 sonos_array_tied
x1[59771] vssa2 vssa2 vssa2 sonos_array_tied
x1[59770] vssa2 vssa2 vssa2 sonos_array_tied
x1[59769] vssa2 vssa2 vssa2 sonos_array_tied
x1[59768] vssa2 vssa2 vssa2 sonos_array_tied
x1[59767] vssa2 vssa2 vssa2 sonos_array_tied
x1[59766] vssa2 vssa2 vssa2 sonos_array_tied
x1[59765] vssa2 vssa2 vssa2 sonos_array_tied
x1[59764] vssa2 vssa2 vssa2 sonos_array_tied
x1[59763] vssa2 vssa2 vssa2 sonos_array_tied
x1[59762] vssa2 vssa2 vssa2 sonos_array_tied
x1[59761] vssa2 vssa2 vssa2 sonos_array_tied
x1[59760] vssa2 vssa2 vssa2 sonos_array_tied
x1[59759] vssa2 vssa2 vssa2 sonos_array_tied
x1[59758] vssa2 vssa2 vssa2 sonos_array_tied
x1[59757] vssa2 vssa2 vssa2 sonos_array_tied
x1[59756] vssa2 vssa2 vssa2 sonos_array_tied
x1[59755] vssa2 vssa2 vssa2 sonos_array_tied
x1[59754] vssa2 vssa2 vssa2 sonos_array_tied
x1[59753] vssa2 vssa2 vssa2 sonos_array_tied
x1[59752] vssa2 vssa2 vssa2 sonos_array_tied
x1[59751] vssa2 vssa2 vssa2 sonos_array_tied
x1[59750] vssa2 vssa2 vssa2 sonos_array_tied
x1[59749] vssa2 vssa2 vssa2 sonos_array_tied
x1[59748] vssa2 vssa2 vssa2 sonos_array_tied
x1[59747] vssa2 vssa2 vssa2 sonos_array_tied
x1[59746] vssa2 vssa2 vssa2 sonos_array_tied
x1[59745] vssa2 vssa2 vssa2 sonos_array_tied
x1[59744] vssa2 vssa2 vssa2 sonos_array_tied
x1[59743] vssa2 vssa2 vssa2 sonos_array_tied
x1[59742] vssa2 vssa2 vssa2 sonos_array_tied
x1[59741] vssa2 vssa2 vssa2 sonos_array_tied
x1[59740] vssa2 vssa2 vssa2 sonos_array_tied
x1[59739] vssa2 vssa2 vssa2 sonos_array_tied
x1[59738] vssa2 vssa2 vssa2 sonos_array_tied
x1[59737] vssa2 vssa2 vssa2 sonos_array_tied
x1[59736] vssa2 vssa2 vssa2 sonos_array_tied
x1[59735] vssa2 vssa2 vssa2 sonos_array_tied
x1[59734] vssa2 vssa2 vssa2 sonos_array_tied
x1[59733] vssa2 vssa2 vssa2 sonos_array_tied
x1[59732] vssa2 vssa2 vssa2 sonos_array_tied
x1[59731] vssa2 vssa2 vssa2 sonos_array_tied
x1[59730] vssa2 vssa2 vssa2 sonos_array_tied
x1[59729] vssa2 vssa2 vssa2 sonos_array_tied
x1[59728] vssa2 vssa2 vssa2 sonos_array_tied
x1[59727] vssa2 vssa2 vssa2 sonos_array_tied
x1[59726] vssa2 vssa2 vssa2 sonos_array_tied
x1[59725] vssa2 vssa2 vssa2 sonos_array_tied
x1[59724] vssa2 vssa2 vssa2 sonos_array_tied
x1[59723] vssa2 vssa2 vssa2 sonos_array_tied
x1[59722] vssa2 vssa2 vssa2 sonos_array_tied
x1[59721] vssa2 vssa2 vssa2 sonos_array_tied
x1[59720] vssa2 vssa2 vssa2 sonos_array_tied
x1[59719] vssa2 vssa2 vssa2 sonos_array_tied
x1[59718] vssa2 vssa2 vssa2 sonos_array_tied
x1[59717] vssa2 vssa2 vssa2 sonos_array_tied
x1[59716] vssa2 vssa2 vssa2 sonos_array_tied
x1[59715] vssa2 vssa2 vssa2 sonos_array_tied
x1[59714] vssa2 vssa2 vssa2 sonos_array_tied
x1[59713] vssa2 vssa2 vssa2 sonos_array_tied
x1[59712] vssa2 vssa2 vssa2 sonos_array_tied
x1[59711] vssa2 vssa2 vssa2 sonos_array_tied
x1[59710] vssa2 vssa2 vssa2 sonos_array_tied
x1[59709] vssa2 vssa2 vssa2 sonos_array_tied
x1[59708] vssa2 vssa2 vssa2 sonos_array_tied
x1[59707] vssa2 vssa2 vssa2 sonos_array_tied
x1[59706] vssa2 vssa2 vssa2 sonos_array_tied
x1[59705] vssa2 vssa2 vssa2 sonos_array_tied
x1[59704] vssa2 vssa2 vssa2 sonos_array_tied
x1[59703] vssa2 vssa2 vssa2 sonos_array_tied
x1[59702] vssa2 vssa2 vssa2 sonos_array_tied
x1[59701] vssa2 vssa2 vssa2 sonos_array_tied
x1[59700] vssa2 vssa2 vssa2 sonos_array_tied
x1[59699] vssa2 vssa2 vssa2 sonos_array_tied
x1[59698] vssa2 vssa2 vssa2 sonos_array_tied
x1[59697] vssa2 vssa2 vssa2 sonos_array_tied
x1[59696] vssa2 vssa2 vssa2 sonos_array_tied
x1[59695] vssa2 vssa2 vssa2 sonos_array_tied
x1[59694] vssa2 vssa2 vssa2 sonos_array_tied
x1[59693] vssa2 vssa2 vssa2 sonos_array_tied
x1[59692] vssa2 vssa2 vssa2 sonos_array_tied
x1[59691] vssa2 vssa2 vssa2 sonos_array_tied
x1[59690] vssa2 vssa2 vssa2 sonos_array_tied
x1[59689] vssa2 vssa2 vssa2 sonos_array_tied
x1[59688] vssa2 vssa2 vssa2 sonos_array_tied
x1[59687] vssa2 vssa2 vssa2 sonos_array_tied
x1[59686] vssa2 vssa2 vssa2 sonos_array_tied
x1[59685] vssa2 vssa2 vssa2 sonos_array_tied
x1[59684] vssa2 vssa2 vssa2 sonos_array_tied
x1[59683] vssa2 vssa2 vssa2 sonos_array_tied
x1[59682] vssa2 vssa2 vssa2 sonos_array_tied
x1[59681] vssa2 vssa2 vssa2 sonos_array_tied
x1[59680] vssa2 vssa2 vssa2 sonos_array_tied
x1[59679] vssa2 vssa2 vssa2 sonos_array_tied
x1[59678] vssa2 vssa2 vssa2 sonos_array_tied
x1[59677] vssa2 vssa2 vssa2 sonos_array_tied
x1[59676] vssa2 vssa2 vssa2 sonos_array_tied
x1[59675] vssa2 vssa2 vssa2 sonos_array_tied
x1[59674] vssa2 vssa2 vssa2 sonos_array_tied
x1[59673] vssa2 vssa2 vssa2 sonos_array_tied
x1[59672] vssa2 vssa2 vssa2 sonos_array_tied
x1[59671] vssa2 vssa2 vssa2 sonos_array_tied
x1[59670] vssa2 vssa2 vssa2 sonos_array_tied
x1[59669] vssa2 vssa2 vssa2 sonos_array_tied
x1[59668] vssa2 vssa2 vssa2 sonos_array_tied
x1[59667] vssa2 vssa2 vssa2 sonos_array_tied
x1[59666] vssa2 vssa2 vssa2 sonos_array_tied
x1[59665] vssa2 vssa2 vssa2 sonos_array_tied
x1[59664] vssa2 vssa2 vssa2 sonos_array_tied
x1[59663] vssa2 vssa2 vssa2 sonos_array_tied
x1[59662] vssa2 vssa2 vssa2 sonos_array_tied
x1[59661] vssa2 vssa2 vssa2 sonos_array_tied
x1[59660] vssa2 vssa2 vssa2 sonos_array_tied
x1[59659] vssa2 vssa2 vssa2 sonos_array_tied
x1[59658] vssa2 vssa2 vssa2 sonos_array_tied
x1[59657] vssa2 vssa2 vssa2 sonos_array_tied
x1[59656] vssa2 vssa2 vssa2 sonos_array_tied
x1[59655] vssa2 vssa2 vssa2 sonos_array_tied
x1[59654] vssa2 vssa2 vssa2 sonos_array_tied
x1[59653] vssa2 vssa2 vssa2 sonos_array_tied
x1[59652] vssa2 vssa2 vssa2 sonos_array_tied
x1[59651] vssa2 vssa2 vssa2 sonos_array_tied
x1[59650] vssa2 vssa2 vssa2 sonos_array_tied
x1[59649] vssa2 vssa2 vssa2 sonos_array_tied
x1[59648] vssa2 vssa2 vssa2 sonos_array_tied
x1[59647] vssa2 vssa2 vssa2 sonos_array_tied
x1[59646] vssa2 vssa2 vssa2 sonos_array_tied
x1[59645] vssa2 vssa2 vssa2 sonos_array_tied
x1[59644] vssa2 vssa2 vssa2 sonos_array_tied
x1[59643] vssa2 vssa2 vssa2 sonos_array_tied
x1[59642] vssa2 vssa2 vssa2 sonos_array_tied
x1[59641] vssa2 vssa2 vssa2 sonos_array_tied
x1[59640] vssa2 vssa2 vssa2 sonos_array_tied
x1[59639] vssa2 vssa2 vssa2 sonos_array_tied
x1[59638] vssa2 vssa2 vssa2 sonos_array_tied
x1[59637] vssa2 vssa2 vssa2 sonos_array_tied
x1[59636] vssa2 vssa2 vssa2 sonos_array_tied
x1[59635] vssa2 vssa2 vssa2 sonos_array_tied
x1[59634] vssa2 vssa2 vssa2 sonos_array_tied
x1[59633] vssa2 vssa2 vssa2 sonos_array_tied
x1[59632] vssa2 vssa2 vssa2 sonos_array_tied
x1[59631] vssa2 vssa2 vssa2 sonos_array_tied
x1[59630] vssa2 vssa2 vssa2 sonos_array_tied
x1[59629] vssa2 vssa2 vssa2 sonos_array_tied
x1[59628] vssa2 vssa2 vssa2 sonos_array_tied
x1[59627] vssa2 vssa2 vssa2 sonos_array_tied
x1[59626] vssa2 vssa2 vssa2 sonos_array_tied
x1[59625] vssa2 vssa2 vssa2 sonos_array_tied
x1[59624] vssa2 vssa2 vssa2 sonos_array_tied
x1[59623] vssa2 vssa2 vssa2 sonos_array_tied
x1[59622] vssa2 vssa2 vssa2 sonos_array_tied
x1[59621] vssa2 vssa2 vssa2 sonos_array_tied
x1[59620] vssa2 vssa2 vssa2 sonos_array_tied
x1[59619] vssa2 vssa2 vssa2 sonos_array_tied
x1[59618] vssa2 vssa2 vssa2 sonos_array_tied
x1[59617] vssa2 vssa2 vssa2 sonos_array_tied
x1[59616] vssa2 vssa2 vssa2 sonos_array_tied
x1[59615] vssa2 vssa2 vssa2 sonos_array_tied
x1[59614] vssa2 vssa2 vssa2 sonos_array_tied
x1[59613] vssa2 vssa2 vssa2 sonos_array_tied
x1[59612] vssa2 vssa2 vssa2 sonos_array_tied
x1[59611] vssa2 vssa2 vssa2 sonos_array_tied
x1[59610] vssa2 vssa2 vssa2 sonos_array_tied
x1[59609] vssa2 vssa2 vssa2 sonos_array_tied
x1[59608] vssa2 vssa2 vssa2 sonos_array_tied
x1[59607] vssa2 vssa2 vssa2 sonos_array_tied
x1[59606] vssa2 vssa2 vssa2 sonos_array_tied
x1[59605] vssa2 vssa2 vssa2 sonos_array_tied
x1[59604] vssa2 vssa2 vssa2 sonos_array_tied
x1[59603] vssa2 vssa2 vssa2 sonos_array_tied
x1[59602] vssa2 vssa2 vssa2 sonos_array_tied
x1[59601] vssa2 vssa2 vssa2 sonos_array_tied
x1[59600] vssa2 vssa2 vssa2 sonos_array_tied
x1[59599] vssa2 vssa2 vssa2 sonos_array_tied
x1[59598] vssa2 vssa2 vssa2 sonos_array_tied
x1[59597] vssa2 vssa2 vssa2 sonos_array_tied
x1[59596] vssa2 vssa2 vssa2 sonos_array_tied
x1[59595] vssa2 vssa2 vssa2 sonos_array_tied
x1[59594] vssa2 vssa2 vssa2 sonos_array_tied
x1[59593] vssa2 vssa2 vssa2 sonos_array_tied
x1[59592] vssa2 vssa2 vssa2 sonos_array_tied
x1[59591] vssa2 vssa2 vssa2 sonos_array_tied
x1[59590] vssa2 vssa2 vssa2 sonos_array_tied
x1[59589] vssa2 vssa2 vssa2 sonos_array_tied
x1[59588] vssa2 vssa2 vssa2 sonos_array_tied
x1[59587] vssa2 vssa2 vssa2 sonos_array_tied
x1[59586] vssa2 vssa2 vssa2 sonos_array_tied
x1[59585] vssa2 vssa2 vssa2 sonos_array_tied
x1[59584] vssa2 vssa2 vssa2 sonos_array_tied
x1[59583] vssa2 vssa2 vssa2 sonos_array_tied
x1[59582] vssa2 vssa2 vssa2 sonos_array_tied
x1[59581] vssa2 vssa2 vssa2 sonos_array_tied
x1[59580] vssa2 vssa2 vssa2 sonos_array_tied
x1[59579] vssa2 vssa2 vssa2 sonos_array_tied
x1[59578] vssa2 vssa2 vssa2 sonos_array_tied
x1[59577] vssa2 vssa2 vssa2 sonos_array_tied
x1[59576] vssa2 vssa2 vssa2 sonos_array_tied
x1[59575] vssa2 vssa2 vssa2 sonos_array_tied
x1[59574] vssa2 vssa2 vssa2 sonos_array_tied
x1[59573] vssa2 vssa2 vssa2 sonos_array_tied
x1[59572] vssa2 vssa2 vssa2 sonos_array_tied
x1[59571] vssa2 vssa2 vssa2 sonos_array_tied
x1[59570] vssa2 vssa2 vssa2 sonos_array_tied
x1[59569] vssa2 vssa2 vssa2 sonos_array_tied
x1[59568] vssa2 vssa2 vssa2 sonos_array_tied
x1[59567] vssa2 vssa2 vssa2 sonos_array_tied
x1[59566] vssa2 vssa2 vssa2 sonos_array_tied
x1[59565] vssa2 vssa2 vssa2 sonos_array_tied
x1[59564] vssa2 vssa2 vssa2 sonos_array_tied
x1[59563] vssa2 vssa2 vssa2 sonos_array_tied
x1[59562] vssa2 vssa2 vssa2 sonos_array_tied
x1[59561] vssa2 vssa2 vssa2 sonos_array_tied
x1[59560] vssa2 vssa2 vssa2 sonos_array_tied
x1[59559] vssa2 vssa2 vssa2 sonos_array_tied